
Spectre (R) Circuit Simulator
Version 20.1.0.068 64bit -- 23 Sep 2020
Copyright (C) 1989-2020 Cadence Design Systems, Inc. All rights reserved worldwide. Cadence and Spectre are registered trademarks of Cadence Design
        Systems, Inc. All others are the property of their respective holders.

Includes RSA BSAFE(R) Cryptographic or Security Protocol Software from RSA Security, Inc.

User: schweikardt   Host: ed-srv-plasma   HostID: 67860A45   PID: 1727822
Memory  available: 24.8262 GB  physical: 270.0959 GB
Linux   : Fedora release 34 (Thirty Four)
CPU Type: AMD Ryzen Threadripper 3990X 64-Core Processor
        Socket: Processors [Frequency] (Hyperthreaded Processor)
        0:       0 [3489.4] (),  1 [2200.0] (),  2 [3487.3] (),  3 [3486.9] (),  4 [3488.5] ()
                 5 [3488.5] (),  6 [3488.5] (),  7 [2200.0] (),  8 [3487.0] (),  9 [3487.0] ()
                10 [2200.0] (), 11 [3487.1] (), 12 [2200.0] (), 13 [3488.6] (), 14 [3488.7] ()
                15 [3488.6] (), 16 [3488.6] (), 17 [3488.6] (), 18 [2200.0] (), 19 [2900.0] ()
                20 [2200.0] (), 21 [2200.0] (), 22 [2200.0] (), 23 [2200.0] (), 24 [3487.3] ()
                25 [2200.0] (), 26 [2200.0] (), 27 [2200.0] (), 28 [2200.0] (), 29 [3488.9] ()
                30 [3488.9] (), 31 [3488.9] (), 32 [3497.2] (), 33 [2200.0] (), 34 [2200.0] ()
                35 [3488.9] (), 36 [2200.0] (), 37 [3487.5] (), 38 [3487.7] (), 39 [3487.7] ()
                40 [2200.0] (), 41 [3487.5] (), 42 [3487.5] (), 43 [2200.0] (), 44 [3486.4] ()
                45 [3486.4] (), 46 [3486.3] (), 47 [3486.3] (), 48 [2200.0] (), 49 [3484.9] ()
                50 [3485.0] (), 51 [3484.9] (), 52 [3489.2] (), 53 [2200.0] (), 54 [2200.0] ()
                55 [3489.3] (), 56 [3489.0] (), 57 [3489.2] (), 58 [3489.2] (), 59 [3489.2] ()
                60 [3489.4] (), 61 [2200.0] (), 62 [2200.0] (), 63 [3489.3] (), 64 [3487.9] ()
                65 [3488.0] (), 66 [2200.0] (), 67 [2200.0] (), 68 [2200.0] (), 69 [2200.0] ()
                70 [2200.0] (), 71 [3489.3] (), 72 [2200.0] (), 73 [3488.0] (), 74 [3488.0] ()
                75 [2200.0] (), 76 [3489.5] (), 77 [2200.0] (), 78 [3489.6] (), 79 [2200.0] ()
                80 [2200.0] (), 81 [2200.0] (), 82 [3489.5] (), 83 [2900.0] (), 84 [3489.7] ()
                85 [3489.7] (), 86 [3489.6] (), 87 [3489.7] (), 88 [2200.0] (), 89 [3488.3] ()
                90 [3488.4] (), 91 [3488.4] (), 92 [3489.8] (), 93 [2200.0] (), 94 [2200.0] ()
                95 [2200.0] (), 96 [2900.0] (), 97 [3489.7] (), 98 [3489.7] (), 99 [2200.0] ()
                100 [3488.6] (), 101 [2200.0] (), 102 [2200.0] (), 103 [2200.0] (), 104 [3488.5] ()
                105 [2200.0] (), 106 [2200.0] (), 107 [3488.6] (), 108 [2200.0] (), 109 [2200.0] ()
                110 [2200.0] (), 111 [2200.0] (), 112 [3486.1] (), 113 [2200.0] (), 114 [2200.0] ()
                115 [2200.0] (), 116 [2200.0] (), 117 [3490.1] (), 118 [3490.1] (), 119 [2200.0] ()
                120 [2200.0] (), 121 [2200.0] (), 122 [2200.0] (), 123 [2200.0] (), 124 [2200.0] ()
                125 [3490.2] (), 126 [3490.2] (), 127 [2200.0] ()
        
System load averages (1min, 5min, 15min) : 52.4 %, 51.6 %, 51.2 %
Hyperthreading is enabled


Simulating `pfet_01v8_tt.scs' on ed-srv-plasma at 12:08:39 PM, Thur Oct 21, 2021 (process id: 1727822).
Current working directory: /home/schweikardt/github/sky130-models-spectre/tests
Command line:
    /opt/cadence/SPECTRE201/068/tools/bin/spectre -64 pfet_01v8_tt.scs
Reading file:  /home/schweikardt/github/sky130-models-spectre/tests/pfet_01v8_tt.scs
Reading link:  /opt/cadence
Reading file:  /mnt/tools/cadence/SPECTRE201/068/tools.lnx86/spectre/etc/configs/spectre.cfg
Reading file:  /home/schweikardt/github/sky130-models-spectre/models/sky130.scs
Reading file:  /home/schweikardt/github/sky130-models-spectre/cells/nfet_01v8/sky130_fd_pr__nfet_01v8__tt.corner.scs
Reading file:  /home/schweikardt/github/sky130-models-spectre/cells/nfet_01v8/sky130_fd_pr__nfet_01v8__tt.pm3.scs
Reading file:  /home/schweikardt/github/sky130-models-spectre/cells/pfet_01v8/sky130_fd_pr__pfet_01v8__tt.corner.scs
Reading file:  /home/schweikardt/github/sky130-models-spectre/cells/pfet_01v8/sky130_fd_pr__pfet_01v8__tt.pm3.scs

Error found by spectre during circuit read-in.
    ERROR (SFE-841): "./../models/../cells/pfet_01v8/sky130_fd_pr__pfet_01v8__tt.pm3.scs" 15: Cannot run the simulation because an unexpected character
        '.' was found at line 15 in the netlist. Correct the syntax error and rerun the simulation.
Error found by spectre in `sky130_fd_pr__pfet_01v8', during circuit read-in.
    ERROR (SFE-874): "./../models/../cells/pfet_01v8/sky130_fd_pr__pfet_01v8__tt.pm3.scs" 41: Cannot run the simulation because syntax error `Unexpected
        identifier "MOS". Expected equals' was encountered at line 41, column 6. Correct the syntax error and rerun the simulation.
    ERROR (SFE-711): "./../models/../cells/pfet_01v8/sky130_fd_pr__pfet_01v8__tt.pm3.scs" 65: Badly formed model in modelgroup.
    ERROR (SFE-874): "./../models/../cells/pfet_01v8/sky130_fd_pr__pfet_01v8__tt.pm3.scs" 66: Cannot run the simulation because syntax error `Unexpected
        operator "-"' was encountered at line 66, column 6. Correct the syntax error and rerun the simulation.
    ERROR (SFE-711): "./../models/../cells/pfet_01v8/sky130_fd_pr__pfet_01v8__tt.pm3.scs" 88: Badly formed model in modelgroup.
    ERROR (SFE-874): "./../models/../cells/pfet_01v8/sky130_fd_pr__pfet_01v8__tt.pm3.scs" 89: Cannot run the simulation because syntax error `Unexpected
        operator "-"' was encountered at line 89, column 6. Correct the syntax error and rerun the simulation.
    ERROR (SFE-711): "./../models/../cells/pfet_01v8/sky130_fd_pr__pfet_01v8__tt.pm3.scs" 96: Badly formed model in modelgroup.
    ERROR (SFE-874): "./../models/../cells/pfet_01v8/sky130_fd_pr__pfet_01v8__tt.pm3.scs" 97: Cannot run the simulation because syntax error `Unexpected
        identifier "Parameters". Expected equals' was encountered at line 97, column 18. Correct the syntax error and rerun the simulation.
    ERROR (SFE-711): "./../models/../cells/pfet_01v8/sky130_fd_pr__pfet_01v8__tt.pm3.scs" 109: Badly formed model in modelgroup.
    ERROR (SFE-874): "./../models/../cells/pfet_01v8/sky130_fd_pr__pfet_01v8__tt.pm3.scs" 110: Cannot run the simulation because syntax error
        `Unexpected identifier "Parameters". Expected equals' was encountered at line 110, column 10. Correct the syntax error and rerun the
        simulation.
    ERROR (SFE-711): "./../models/../cells/pfet_01v8/sky130_fd_pr__pfet_01v8__tt.pm3.scs" 116: Badly formed model in modelgroup.
    ERROR (SFE-874): "./../models/../cells/pfet_01v8/sky130_fd_pr__pfet_01v8__tt.pm3.scs" 118: Cannot run the simulation because syntax error
        `Unexpected identifier "vsat". Expected equals' was encountered at line 118, column 1. Correct the syntax error and rerun the simulation.
    ERROR (SFE-711): "./../models/../cells/pfet_01v8/sky130_fd_pr__pfet_01v8__tt.pm3.scs" 133: Badly formed model in modelgroup.
    ERROR (SFE-874): "./../models/../cells/pfet_01v8/sky130_fd_pr__pfet_01v8__tt.pm3.scs" 134: Cannot run the simulation because syntax error
        `Unexpected operator "-"' was encountered at line 134, column 6. Correct the syntax error and rerun the simulation.
    ERROR (SFE-711): "./../models/../cells/pfet_01v8/sky130_fd_pr__pfet_01v8__tt.pm3.scs" 140: Badly formed model in modelgroup.
    ERROR (SFE-874): "./../models/../cells/pfet_01v8/sky130_fd_pr__pfet_01v8__tt.pm3.scs" 141: Cannot run the simulation because syntax error
        `Unexpected identifier "Parameters". Expected equals' was encountered at line 141, column 21. Correct the syntax error and rerun the
        simulation.
    ERROR (SFE-711): "./../models/../cells/pfet_01v8/sky130_fd_pr__pfet_01v8__tt.pm3.scs" 155: Badly formed model in modelgroup.
    ERROR (SFE-874): "./../models/../cells/pfet_01v8/sky130_fd_pr__pfet_01v8__tt.pm3.scs" 156: Cannot run the simulation because syntax error
        `Unexpected operator "-"' was encountered at line 156, column 6. Correct the syntax error and rerun the simulation.
    ERROR (SFE-711): "./../models/../cells/pfet_01v8/sky130_fd_pr__pfet_01v8__tt.pm3.scs" 158: Badly formed model in modelgroup.
    ERROR (SFE-874): "./../models/../cells/pfet_01v8/sky130_fd_pr__pfet_01v8__tt.pm3.scs" 160: Cannot run the simulation because syntax error
        `Unexpected identifier "pclm". Expected equals' was encountered at line 160, column 1. Correct the syntax error and rerun the simulation.
    ERROR (SFE-711): "./../models/../cells/pfet_01v8/sky130_fd_pr__pfet_01v8__tt.pm3.scs" 171: Badly formed model in modelgroup.
    ERROR (SFE-874): "./../models/../cells/pfet_01v8/sky130_fd_pr__pfet_01v8__tt.pm3.scs" 172: Cannot run the simulation because syntax error
        `Unexpected operator "-"' was encountered at line 172, column 6. Correct the syntax error and rerun the simulation.
    ERROR (SFE-711): "./../models/../cells/pfet_01v8/sky130_fd_pr__pfet_01v8__tt.pm3.scs" 176: Badly formed model in modelgroup.
    ERROR (SFE-874): "./../models/../cells/pfet_01v8/sky130_fd_pr__pfet_01v8__tt.pm3.scs" 177: Cannot run the simulation because syntax error
        `Unexpected operator "-"' was encountered at line 177, column 6. Correct the syntax error and rerun the simulation.
    ERROR (SFE-711): "./../models/../cells/pfet_01v8/sky130_fd_pr__pfet_01v8__tt.pm3.scs" 181: Badly formed model in modelgroup.
    ERROR (SFE-874): "./../models/../cells/pfet_01v8/sky130_fd_pr__pfet_01v8__tt.pm3.scs" 182: Cannot run the simulation because syntax error
        `Unexpected operator "-"' was encountered at line 182, column 6. Correct the syntax error and rerun the simulation.
    ERROR (SFE-711): "./../models/../cells/pfet_01v8/sky130_fd_pr__pfet_01v8__tt.pm3.scs" 203: Badly formed model in modelgroup.
    ERROR (SFE-874): "./../models/../cells/pfet_01v8/sky130_fd_pr__pfet_01v8__tt.pm3.scs" 204: Cannot run the simulation because syntax error
        `Unexpected identifier "Parameters". Expected equals' was encountered at line 204, column 20. Correct the syntax error and rerun the
        simulation.
    ERROR (SFE-711): "./../models/../cells/pfet_01v8/sky130_fd_pr__pfet_01v8__tt.pm3.scs" 213: Badly formed model in modelgroup.
    ERROR (SFE-874): "./../models/../cells/pfet_01v8/sky130_fd_pr__pfet_01v8__tt.pm3.scs" 214: Cannot run the simulation because syntax error
        `Unexpected operator "-"' was encountered at line 214, column 6. Correct the syntax error and rerun the simulation.
    ERROR (SFE-711): "./../models/../cells/pfet_01v8/sky130_fd_pr__pfet_01v8__tt.pm3.scs" 222: Badly formed model in modelgroup.
    ERROR (SFE-874): "./../models/../cells/pfet_01v8/sky130_fd_pr__pfet_01v8__tt.pm3.scs" 223: Cannot run the simulation because syntax error
        `Unexpected operator "-"' was encountered at line 223, column 6. Correct the syntax error and rerun the simulation.
    ERROR (SFE-711): "./../models/../cells/pfet_01v8/sky130_fd_pr__pfet_01v8__tt.pm3.scs" 231: Badly formed model in modelgroup.
    ERROR (SFE-874): "./../models/../cells/pfet_01v8/sky130_fd_pr__pfet_01v8__tt.pm3.scs" 232: Cannot run the simulation because syntax error
        `Unexpected operator "-"' was encountered at line 232, column 6. Correct the syntax error and rerun the simulation.
    ERROR (SFE-711): "./../models/../cells/pfet_01v8/sky130_fd_pr__pfet_01v8__tt.pm3.scs" 238: Badly formed model in modelgroup.
    ERROR (SFE-874): "./../models/../cells/pfet_01v8/sky130_fd_pr__pfet_01v8__tt.pm3.scs" 239: Cannot run the simulation because syntax error
        `Unexpected identifier "IV". Expected equals' was encountered at line 239, column 9. Correct the syntax error and rerun the simulation.
    ERROR (SFE-711): "./../models/../cells/pfet_01v8/sky130_fd_pr__pfet_01v8__tt.pm3.scs" 239: Badly formed model in modelgroup.
    ERROR (SFE-874): "./../models/../cells/pfet_01v8/sky130_fd_pr__pfet_01v8__tt.pm3.scs" 240: Cannot run the simulation because syntax error
        `Unexpected operator "-"' was encountered at line 240, column 6. Correct the syntax error and rerun the simulation.
    ERROR (SFE-711): "./../models/../cells/pfet_01v8/sky130_fd_pr__pfet_01v8__tt.pm3.scs" 249: Badly formed model in modelgroup.
    ERROR (SFE-874): "./../models/../cells/pfet_01v8/sky130_fd_pr__pfet_01v8__tt.pm3.scs" 250: Cannot run the simulation because syntax error
        `Unexpected identifier "FET". Expected equals' was encountered at line 250, column 10. Correct the syntax error and rerun the simulation.
    ERROR (SFE-711): "./../models/../cells/pfet_01v8/sky130_fd_pr__pfet_01v8__tt.pm3.scs" 280: Badly formed model in modelgroup.
    ERROR (SFE-874): "./../models/../cells/pfet_01v8/sky130_fd_pr__pfet_01v8__tt.pm3.scs" 281: Cannot run the simulation because syntax error
        `Unexpected operator "-"' was encountered at line 281, column 6. Correct the syntax error and rerun the simulation.
    ERROR (SFE-711): "./../models/../cells/pfet_01v8/sky130_fd_pr__pfet_01v8__tt.pm3.scs" 291: Badly formed model in modelgroup.
    ERROR (SFE-874): "./../models/../cells/pfet_01v8/sky130_fd_pr__pfet_01v8__tt.pm3.scs" 293: Cannot run the simulation because syntax error
        `Unexpected identifier "saref". Expected equals' was encountered at line 293, column 1. Correct the syntax error and rerun the simulation.
    ERROR (SFE-711): "./../models/../cells/pfet_01v8/sky130_fd_pr__pfet_01v8__tt.pm3.scs" 313: Badly formed model in modelgroup.
    ERROR (SFE-874): "./../models/../cells/pfet_01v8/sky130_fd_pr__pfet_01v8__tt.pm3.scs" 316: Cannot run the simulation because syntax error
        `Unexpected identifier "MOS". Expected equals' was encountered at line 316, column 6. Correct the syntax error and rerun the simulation.
    ERROR (SFE-711): "./../models/../cells/pfet_01v8/sky130_fd_pr__pfet_01v8__tt.pm3.scs" 340: Badly formed model in modelgroup.
    ERROR (SFE-874): "./../models/../cells/pfet_01v8/sky130_fd_pr__pfet_01v8__tt.pm3.scs" 341: Cannot run the simulation because syntax error
        `Unexpected operator "-"' was encountered at line 341, column 6. Correct the syntax error and rerun the simulation.
    ERROR (SFE-711): "./../models/../cells/pfet_01v8/sky130_fd_pr__pfet_01v8__tt.pm3.scs" 363: Badly formed model in modelgroup.
    ERROR (SFE-874): "./../models/../cells/pfet_01v8/sky130_fd_pr__pfet_01v8__tt.pm3.scs" 364: Cannot run the simulation because syntax error
        `Unexpected operator "-"' was encountered at line 364, column 6. Correct the syntax error and rerun the simulation.
    ERROR (SFE-711): "./../models/../cells/pfet_01v8/sky130_fd_pr__pfet_01v8__tt.pm3.scs" 371: Badly formed model in modelgroup.
    ERROR (SFE-874): "./../models/../cells/pfet_01v8/sky130_fd_pr__pfet_01v8__tt.pm3.scs" 372: Cannot run the simulation because syntax error
        `Unexpected identifier "Parameters". Expected equals' was encountered at line 372, column 18. Correct the syntax error and rerun the
        simulation.
    ERROR (SFE-711): "./../models/../cells/pfet_01v8/sky130_fd_pr__pfet_01v8__tt.pm3.scs" 384: Badly formed model in modelgroup.
    ERROR (SFE-874): "./../models/../cells/pfet_01v8/sky130_fd_pr__pfet_01v8__tt.pm3.scs" 385: Cannot run the simulation because syntax error
        `Unexpected identifier "Parameters". Expected equals' was encountered at line 385, column 10. Correct the syntax error and rerun the
        simulation.
    ERROR (SFE-711): "./../models/../cells/pfet_01v8/sky130_fd_pr__pfet_01v8__tt.pm3.scs" 391: Badly formed model in modelgroup.
    ERROR (SFE-874): "./../models/../cells/pfet_01v8/sky130_fd_pr__pfet_01v8__tt.pm3.scs" 393: Cannot run the simulation because syntax error
        `Unexpected identifier "vsat". Expected equals' was encountered at line 393, column 1. Correct the syntax error and rerun the simulation.
    ERROR (SFE-711): "./../models/../cells/pfet_01v8/sky130_fd_pr__pfet_01v8__tt.pm3.scs" 408: Badly formed model in modelgroup.
    ERROR (SFE-874): "./../models/../cells/pfet_01v8/sky130_fd_pr__pfet_01v8__tt.pm3.scs" 409: Cannot run the simulation because syntax error
        `Unexpected operator "-"' was encountered at line 409, column 6. Correct the syntax error and rerun the simulation.
    ERROR (SFE-711): "./../models/../cells/pfet_01v8/sky130_fd_pr__pfet_01v8__tt.pm3.scs" 415: Badly formed model in modelgroup.
    ERROR (SFE-874): "./../models/../cells/pfet_01v8/sky130_fd_pr__pfet_01v8__tt.pm3.scs" 416: Cannot run the simulation because syntax error
        `Unexpected identifier "Parameters". Expected equals' was encountered at line 416, column 21. Correct the syntax error and rerun the
        simulation.
    ERROR (SFE-711): "./../models/../cells/pfet_01v8/sky130_fd_pr__pfet_01v8__tt.pm3.scs" 430: Badly formed model in modelgroup.
    ERROR (SFE-874): "./../models/../cells/pfet_01v8/sky130_fd_pr__pfet_01v8__tt.pm3.scs" 431: Cannot run the simulation because syntax error
        `Unexpected operator "-"' was encountered at line 431, column 6. Correct the syntax error and rerun the simulation.
    ERROR (SFE-711): "./../models/../cells/pfet_01v8/sky130_fd_pr__pfet_01v8__tt.pm3.scs" 433: Badly formed model in modelgroup.
    ERROR (SFE-874): "./../models/../cells/pfet_01v8/sky130_fd_pr__pfet_01v8__tt.pm3.scs" 435: Cannot run the simulation because syntax error
        `Unexpected identifier "pclm". Expected equals' was encountered at line 435, column 1. Correct the syntax error and rerun the simulation.
    ERROR (SFE-711): "./../models/../cells/pfet_01v8/sky130_fd_pr__pfet_01v8__tt.pm3.scs" 446: Badly formed model in modelgroup.
    ERROR (SFE-874): "./../models/../cells/pfet_01v8/sky130_fd_pr__pfet_01v8__tt.pm3.scs" 447: Cannot run the simulation because syntax error
        `Unexpected operator "-"' was encountered at line 447, column 6. Correct the syntax error and rerun the simulation.
    ERROR (SFE-711): "./../models/../cells/pfet_01v8/sky130_fd_pr__pfet_01v8__tt.pm3.scs" 451: Badly formed model in modelgroup.
    ERROR (SFE-874): "./../models/../cells/pfet_01v8/sky130_fd_pr__pfet_01v8__tt.pm3.scs" 452: Cannot run the simulation because syntax error
        `Unexpected operator "-"' was encountered at line 452, column 6. Correct the syntax error and rerun the simulation.
    ERROR (SFE-711): "./../models/../cells/pfet_01v8/sky130_fd_pr__pfet_01v8__tt.pm3.scs" 456: Badly formed model in modelgroup.
    ERROR (SFE-874): "./../models/../cells/pfet_01v8/sky130_fd_pr__pfet_01v8__tt.pm3.scs" 457: Cannot run the simulation because syntax error
        `Unexpected operator "-"' was encountered at line 457, column 6. Correct the syntax error and rerun the simulation.
    ERROR (SFE-711): "./../models/../cells/pfet_01v8/sky130_fd_pr__pfet_01v8__tt.pm3.scs" 478: Badly formed model in modelgroup.
    ERROR (SFE-874): "./../models/../cells/pfet_01v8/sky130_fd_pr__pfet_01v8__tt.pm3.scs" 479: Cannot run the simulation because syntax error
        `Unexpected identifier "Parameters". Expected equals' was encountered at line 479, column 20. Correct the syntax error and rerun the
        simulation.
    ERROR (SFE-711): "./../models/../cells/pfet_01v8/sky130_fd_pr__pfet_01v8__tt.pm3.scs" 488: Badly formed model in modelgroup.
    ERROR (SFE-874): "./../models/../cells/pfet_01v8/sky130_fd_pr__pfet_01v8__tt.pm3.scs" 489: Cannot run the simulation because syntax error
        `Unexpected operator "-"' was encountered at line 489, column 6. Correct the syntax error and rerun the simulation.
    ERROR (SFE-711): "./../models/../cells/pfet_01v8/sky130_fd_pr__pfet_01v8__tt.pm3.scs" 497: Badly formed model in modelgroup.
    ERROR (SFE-874): "./../models/../cells/pfet_01v8/sky130_fd_pr__pfet_01v8__tt.pm3.scs" 498: Cannot run the simulation because syntax error
        `Unexpected operator "-"' was encountered at line 498, column 6. Correct the syntax error and rerun the simulation.
    ERROR (SFE-711): "./../models/../cells/pfet_01v8/sky130_fd_pr__pfet_01v8__tt.pm3.scs" 506: Badly formed model in modelgroup.
    ERROR (SFE-874): "./../models/../cells/pfet_01v8/sky130_fd_pr__pfet_01v8__tt.pm3.scs" 507: Cannot run the simulation because syntax error
        `Unexpected operator "-"' was encountered at line 507, column 6. Correct the syntax error and rerun the simulation.
    ERROR (SFE-711): "./../models/../cells/pfet_01v8/sky130_fd_pr__pfet_01v8__tt.pm3.scs" 513: Badly formed model in modelgroup.
    ERROR (SFE-874): "./../models/../cells/pfet_01v8/sky130_fd_pr__pfet_01v8__tt.pm3.scs" 514: Cannot run the simulation because syntax error
        `Unexpected identifier "IV". Expected equals' was encountered at line 514, column 9. Correct the syntax error and rerun the simulation.
    ERROR (SFE-711): "./../models/../cells/pfet_01v8/sky130_fd_pr__pfet_01v8__tt.pm3.scs" 514: Badly formed model in modelgroup.
    ERROR (SFE-874): "./../models/../cells/pfet_01v8/sky130_fd_pr__pfet_01v8__tt.pm3.scs" 515: Cannot run the simulation because syntax error
        `Unexpected operator "-"' was encountered at line 515, column 6. Correct the syntax error and rerun the simulation.
    ERROR (SFE-711): "./../models/../cells/pfet_01v8/sky130_fd_pr__pfet_01v8__tt.pm3.scs" 524: Badly formed model in modelgroup.
    ERROR (SFE-874): "./../models/../cells/pfet_01v8/sky130_fd_pr__pfet_01v8__tt.pm3.scs" 525: Cannot run the simulation because syntax error
        `Unexpected identifier "FET". Expected equals' was encountered at line 525, column 10. Correct the syntax error and rerun the simulation.
    ERROR (SFE-711): "./../models/../cells/pfet_01v8/sky130_fd_pr__pfet_01v8__tt.pm3.scs" 555: Badly formed model in modelgroup.
    ERROR (SFE-874): "./../models/../cells/pfet_01v8/sky130_fd_pr__pfet_01v8__tt.pm3.scs" 556: Cannot run the simulation because syntax error
        `Unexpected operator "-"' was encountered at line 556, column 6. Correct the syntax error and rerun the simulation.
    ERROR (SFE-711): "./../models/../cells/pfet_01v8/sky130_fd_pr__pfet_01v8__tt.pm3.scs" 566: Badly formed model in modelgroup.
    ERROR (SFE-874): "./../models/../cells/pfet_01v8/sky130_fd_pr__pfet_01v8__tt.pm3.scs" 568: Cannot run the simulation because syntax error
        `Unexpected identifier "saref". Expected equals' was encountered at line 568, column 1. Correct the syntax error and rerun the simulation.
    ERROR (SFE-711): "./../models/../cells/pfet_01v8/sky130_fd_pr__pfet_01v8__tt.pm3.scs" 588: Badly formed model in modelgroup.
    ERROR (SFE-874): "./../models/../cells/pfet_01v8/sky130_fd_pr__pfet_01v8__tt.pm3.scs" 591: Cannot run the simulation because syntax error
        `Unexpected identifier "MOS". Expected equals' was encountered at line 591, column 6. Correct the syntax error and rerun the simulation.
    ERROR (SFE-711): "./../models/../cells/pfet_01v8/sky130_fd_pr__pfet_01v8__tt.pm3.scs" 615: Badly formed model in modelgroup.
    ERROR (SFE-874): "./../models/../cells/pfet_01v8/sky130_fd_pr__pfet_01v8__tt.pm3.scs" 616: Cannot run the simulation because syntax error
        `Unexpected operator "-"' was encountered at line 616, column 6. Correct the syntax error and rerun the simulation.
    ERROR (SFE-711): "./../models/../cells/pfet_01v8/sky130_fd_pr__pfet_01v8__tt.pm3.scs" 638: Badly formed model in modelgroup.
    ERROR (SFE-874): "./../models/../cells/pfet_01v8/sky130_fd_pr__pfet_01v8__tt.pm3.scs" 639: Cannot run the simulation because syntax error
        `Unexpected operator "-"' was encountered at line 639, column 6. Correct the syntax error and rerun the simulation.
    ERROR (SFE-711): "./../models/../cells/pfet_01v8/sky130_fd_pr__pfet_01v8__tt.pm3.scs" 646: Badly formed model in modelgroup.
    ERROR (SFE-874): "./../models/../cells/pfet_01v8/sky130_fd_pr__pfet_01v8__tt.pm3.scs" 647: Cannot run the simulation because syntax error
        `Unexpected identifier "Parameters". Expected equals' was encountered at line 647, column 18. Correct the syntax error and rerun the
        simulation.
    ERROR (SFE-711): "./../models/../cells/pfet_01v8/sky130_fd_pr__pfet_01v8__tt.pm3.scs" 659: Badly formed model in modelgroup.
    ERROR (SFE-874): "./../models/../cells/pfet_01v8/sky130_fd_pr__pfet_01v8__tt.pm3.scs" 660: Cannot run the simulation because syntax error
        `Unexpected identifier "Parameters". Expected equals' was encountered at line 660, column 10. Correct the syntax error and rerun the
        simulation.
    ERROR (SFE-711): "./../models/../cells/pfet_01v8/sky130_fd_pr__pfet_01v8__tt.pm3.scs" 666: Badly formed model in modelgroup.
    ERROR (SFE-874): "./../models/../cells/pfet_01v8/sky130_fd_pr__pfet_01v8__tt.pm3.scs" 668: Cannot run the simulation because syntax error
        `Unexpected identifier "vsat". Expected equals' was encountered at line 668, column 1. Correct the syntax error and rerun the simulation.
    ERROR (SFE-711): "./../models/../cells/pfet_01v8/sky130_fd_pr__pfet_01v8__tt.pm3.scs" 683: Badly formed model in modelgroup.
    ERROR (SFE-874): "./../models/../cells/pfet_01v8/sky130_fd_pr__pfet_01v8__tt.pm3.scs" 684: Cannot run the simulation because syntax error
        `Unexpected operator "-"' was encountered at line 684, column 6. Correct the syntax error and rerun the simulation.
    ERROR (SFE-711): "./../models/../cells/pfet_01v8/sky130_fd_pr__pfet_01v8__tt.pm3.scs" 690: Badly formed model in modelgroup.
    ERROR (SFE-874): "./../models/../cells/pfet_01v8/sky130_fd_pr__pfet_01v8__tt.pm3.scs" 691: Cannot run the simulation because syntax error
        `Unexpected identifier "Parameters". Expected equals' was encountered at line 691, column 21. Correct the syntax error and rerun the
        simulation.
    ERROR (SFE-711): "./../models/../cells/pfet_01v8/sky130_fd_pr__pfet_01v8__tt.pm3.scs" 705: Badly formed model in modelgroup.
    ERROR (SFE-874): "./../models/../cells/pfet_01v8/sky130_fd_pr__pfet_01v8__tt.pm3.scs" 706: Cannot run the simulation because syntax error
        `Unexpected operator "-"' was encountered at line 706, column 6. Correct the syntax error and rerun the simulation.
    ERROR (SFE-711): "./../models/../cells/pfet_01v8/sky130_fd_pr__pfet_01v8__tt.pm3.scs" 708: Badly formed model in modelgroup.
    ERROR (SFE-874): "./../models/../cells/pfet_01v8/sky130_fd_pr__pfet_01v8__tt.pm3.scs" 710: Cannot run the simulation because syntax error
        `Unexpected identifier "pclm". Expected equals' was encountered at line 710, column 1. Correct the syntax error and rerun the simulation.
    ERROR (SFE-711): "./../models/../cells/pfet_01v8/sky130_fd_pr__pfet_01v8__tt.pm3.scs" 721: Badly formed model in modelgroup.
    ERROR (SFE-874): "./../models/../cells/pfet_01v8/sky130_fd_pr__pfet_01v8__tt.pm3.scs" 722: Cannot run the simulation because syntax error
        `Unexpected operator "-"' was encountered at line 722, column 6. Correct the syntax error and rerun the simulation.
    ERROR (SFE-711): "./../models/../cells/pfet_01v8/sky130_fd_pr__pfet_01v8__tt.pm3.scs" 726: Badly formed model in modelgroup.
    ERROR (SFE-874): "./../models/../cells/pfet_01v8/sky130_fd_pr__pfet_01v8__tt.pm3.scs" 727: Cannot run the simulation because syntax error
        `Unexpected operator "-"' was encountered at line 727, column 6. Correct the syntax error and rerun the simulation.
    ERROR (SFE-711): "./../models/../cells/pfet_01v8/sky130_fd_pr__pfet_01v8__tt.pm3.scs" 731: Badly formed model in modelgroup.
    ERROR (SFE-874): "./../models/../cells/pfet_01v8/sky130_fd_pr__pfet_01v8__tt.pm3.scs" 732: Cannot run the simulation because syntax error
        `Unexpected operator "-"' was encountered at line 732, column 6. Correct the syntax error and rerun the simulation.
    ERROR (SFE-711): "./../models/../cells/pfet_01v8/sky130_fd_pr__pfet_01v8__tt.pm3.scs" 753: Badly formed model in modelgroup.
    ERROR (SFE-874): "./../models/../cells/pfet_01v8/sky130_fd_pr__pfet_01v8__tt.pm3.scs" 754: Cannot run the simulation because syntax error
        `Unexpected identifier "Parameters". Expected equals' was encountered at line 754, column 20. Correct the syntax error and rerun the
        simulation.
    ERROR (SFE-711): "./../models/../cells/pfet_01v8/sky130_fd_pr__pfet_01v8__tt.pm3.scs" 763: Badly formed model in modelgroup.
    ERROR (SFE-874): "./../models/../cells/pfet_01v8/sky130_fd_pr__pfet_01v8__tt.pm3.scs" 764: Cannot run the simulation because syntax error
        `Unexpected operator "-"' was encountered at line 764, column 6. Correct the syntax error and rerun the simulation.
    ERROR (SFE-711): "./../models/../cells/pfet_01v8/sky130_fd_pr__pfet_01v8__tt.pm3.scs" 772: Badly formed model in modelgroup.
    ERROR (SFE-874): "./../models/../cells/pfet_01v8/sky130_fd_pr__pfet_01v8__tt.pm3.scs" 773: Cannot run the simulation because syntax error
        `Unexpected operator "-"' was encountered at line 773, column 6. Correct the syntax error and rerun the simulation.
    ERROR (SFE-711): "./../models/../cells/pfet_01v8/sky130_fd_pr__pfet_01v8__tt.pm3.scs" 781: Badly formed model in modelgroup.
    ERROR (SFE-874): "./../models/../cells/pfet_01v8/sky130_fd_pr__pfet_01v8__tt.pm3.scs" 782: Cannot run the simulation because syntax error
        `Unexpected operator "-"' was encountered at line 782, column 6. Correct the syntax error and rerun the simulation.
    ERROR (SFE-711): "./../models/../cells/pfet_01v8/sky130_fd_pr__pfet_01v8__tt.pm3.scs" 788: Badly formed model in modelgroup.
    ERROR (SFE-874): "./../models/../cells/pfet_01v8/sky130_fd_pr__pfet_01v8__tt.pm3.scs" 789: Cannot run the simulation because syntax error
        `Unexpected identifier "IV". Expected equals' was encountered at line 789, column 9. Correct the syntax error and rerun the simulation.
    ERROR (SFE-711): "./../models/../cells/pfet_01v8/sky130_fd_pr__pfet_01v8__tt.pm3.scs" 789: Badly formed model in modelgroup.
    ERROR (SFE-874): "./../models/../cells/pfet_01v8/sky130_fd_pr__pfet_01v8__tt.pm3.scs" 790: Cannot run the simulation because syntax error
        `Unexpected operator "-"' was encountered at line 790, column 6. Correct the syntax error and rerun the simulation.
    ERROR (SFE-711): "./../models/../cells/pfet_01v8/sky130_fd_pr__pfet_01v8__tt.pm3.scs" 799: Badly formed model in modelgroup.
    ERROR (SFE-874): "./../models/../cells/pfet_01v8/sky130_fd_pr__pfet_01v8__tt.pm3.scs" 800: Cannot run the simulation because syntax error
        `Unexpected identifier "FET". Expected equals' was encountered at line 800, column 10. Correct the syntax error and rerun the simulation.
    ERROR (SFE-711): "./../models/../cells/pfet_01v8/sky130_fd_pr__pfet_01v8__tt.pm3.scs" 830: Badly formed model in modelgroup.
    ERROR (SFE-874): "./../models/../cells/pfet_01v8/sky130_fd_pr__pfet_01v8__tt.pm3.scs" 831: Cannot run the simulation because syntax error
        `Unexpected operator "-"' was encountered at line 831, column 6. Correct the syntax error and rerun the simulation.
    ERROR (SFE-711): "./../models/../cells/pfet_01v8/sky130_fd_pr__pfet_01v8__tt.pm3.scs" 841: Badly formed model in modelgroup.
    ERROR (SFE-874): "./../models/../cells/pfet_01v8/sky130_fd_pr__pfet_01v8__tt.pm3.scs" 843: Cannot run the simulation because syntax error
        `Unexpected identifier "saref". Expected equals' was encountered at line 843, column 1. Correct the syntax error and rerun the simulation.
    ERROR (SFE-711): "./../models/../cells/pfet_01v8/sky130_fd_pr__pfet_01v8__tt.pm3.scs" 863: Badly formed model in modelgroup.
    ERROR (SFE-874): "./../models/../cells/pfet_01v8/sky130_fd_pr__pfet_01v8__tt.pm3.scs" 866: Cannot run the simulation because syntax error
        `Unexpected identifier "MOS". Expected equals' was encountered at line 866, column 6. Correct the syntax error and rerun the simulation.
    ERROR (SFE-711): "./../models/../cells/pfet_01v8/sky130_fd_pr__pfet_01v8__tt.pm3.scs" 890: Badly formed model in modelgroup.
    ERROR (SFE-874): "./../models/../cells/pfet_01v8/sky130_fd_pr__pfet_01v8__tt.pm3.scs" 891: Cannot run the simulation because syntax error
        `Unexpected operator "-"' was encountered at line 891, column 6. Correct the syntax error and rerun the simulation.
    ERROR (SFE-711): "./../models/../cells/pfet_01v8/sky130_fd_pr__pfet_01v8__tt.pm3.scs" 913: Badly formed model in modelgroup.
    ERROR (SFE-874): "./../models/../cells/pfet_01v8/sky130_fd_pr__pfet_01v8__tt.pm3.scs" 914: Cannot run the simulation because syntax error
        `Unexpected operator "-"' was encountered at line 914, column 6. Correct the syntax error and rerun the simulation.
    ERROR (SFE-711): "./../models/../cells/pfet_01v8/sky130_fd_pr__pfet_01v8__tt.pm3.scs" 921: Badly formed model in modelgroup.
    ERROR (SFE-874): "./../models/../cells/pfet_01v8/sky130_fd_pr__pfet_01v8__tt.pm3.scs" 922: Cannot run the simulation because syntax error
        `Unexpected identifier "Parameters". Expected equals' was encountered at line 922, column 18. Correct the syntax error and rerun the
        simulation.
    ERROR (SFE-711): "./../models/../cells/pfet_01v8/sky130_fd_pr__pfet_01v8__tt.pm3.scs" 934: Badly formed model in modelgroup.
    ERROR (SFE-874): "./../models/../cells/pfet_01v8/sky130_fd_pr__pfet_01v8__tt.pm3.scs" 935: Cannot run the simulation because syntax error
        `Unexpected identifier "Parameters". Expected equals' was encountered at line 935, column 10. Correct the syntax error and rerun the
        simulation.
    ERROR (SFE-711): "./../models/../cells/pfet_01v8/sky130_fd_pr__pfet_01v8__tt.pm3.scs" 941: Badly formed model in modelgroup.
    ERROR (SFE-874): "./../models/../cells/pfet_01v8/sky130_fd_pr__pfet_01v8__tt.pm3.scs" 943: Cannot run the simulation because syntax error
        `Unexpected identifier "vsat". Expected equals' was encountered at line 943, column 1. Correct the syntax error and rerun the simulation.
    ERROR (SFE-711): "./../models/../cells/pfet_01v8/sky130_fd_pr__pfet_01v8__tt.pm3.scs" 958: Badly formed model in modelgroup.
    ERROR (SFE-874): "./../models/../cells/pfet_01v8/sky130_fd_pr__pfet_01v8__tt.pm3.scs" 959: Cannot run the simulation because syntax error
        `Unexpected operator "-"' was encountered at line 959, column 6. Correct the syntax error and rerun the simulation.
    ERROR (SFE-711): "./../models/../cells/pfet_01v8/sky130_fd_pr__pfet_01v8__tt.pm3.scs" 965: Badly formed model in modelgroup.
    ERROR (SFE-874): "./../models/../cells/pfet_01v8/sky130_fd_pr__pfet_01v8__tt.pm3.scs" 966: Cannot run the simulation because syntax error
        `Unexpected identifier "Parameters". Expected equals' was encountered at line 966, column 21. Correct the syntax error and rerun the
        simulation.
    ERROR (SFE-711): "./../models/../cells/pfet_01v8/sky130_fd_pr__pfet_01v8__tt.pm3.scs" 980: Badly formed model in modelgroup.
    ERROR (SFE-874): "./../models/../cells/pfet_01v8/sky130_fd_pr__pfet_01v8__tt.pm3.scs" 981: Cannot run the simulation because syntax error
        `Unexpected operator "-"' was encountered at line 981, column 6. Correct the syntax error and rerun the simulation.
    ERROR (SFE-711): "./../models/../cells/pfet_01v8/sky130_fd_pr__pfet_01v8__tt.pm3.scs" 983: Badly formed model in modelgroup.
    ERROR (SFE-874): "./../models/../cells/pfet_01v8/sky130_fd_pr__pfet_01v8__tt.pm3.scs" 985: Cannot run the simulation because syntax error
        `Unexpected identifier "pclm". Expected equals' was encountered at line 985, column 1. Correct the syntax error and rerun the simulation.
    ERROR (SFE-711): "./../models/../cells/pfet_01v8/sky130_fd_pr__pfet_01v8__tt.pm3.scs" 996: Badly formed model in modelgroup.
    ERROR (SFE-874): "./../models/../cells/pfet_01v8/sky130_fd_pr__pfet_01v8__tt.pm3.scs" 997: Cannot run the simulation because syntax error
        `Unexpected operator "-"' was encountered at line 997, column 6. Correct the syntax error and rerun the simulation.
    ERROR (SFE-711): "./../models/../cells/pfet_01v8/sky130_fd_pr__pfet_01v8__tt.pm3.scs" 1001: Badly formed model in modelgroup.
    ERROR (SFE-874): "./../models/../cells/pfet_01v8/sky130_fd_pr__pfet_01v8__tt.pm3.scs" 1002: Cannot run the simulation because syntax error
        `Unexpected operator "-"' was encountered at line 1002, column 6. Correct the syntax error and rerun the simulation.
    ERROR (SFE-711): "./../models/../cells/pfet_01v8/sky130_fd_pr__pfet_01v8__tt.pm3.scs" 1006: Badly formed model in modelgroup.
    ERROR (SFE-874): "./../models/../cells/pfet_01v8/sky130_fd_pr__pfet_01v8__tt.pm3.scs" 1007: Cannot run the simulation because syntax error
        `Unexpected operator "-"' was encountered at line 1007, column 6. Correct the syntax error and rerun the simulation.
    ERROR (SFE-711): "./../models/../cells/pfet_01v8/sky130_fd_pr__pfet_01v8__tt.pm3.scs" 1028: Badly formed model in modelgroup.
    ERROR (SFE-874): "./../models/../cells/pfet_01v8/sky130_fd_pr__pfet_01v8__tt.pm3.scs" 1029: Cannot run the simulation because syntax error
        `Unexpected identifier "Parameters". Expected equals' was encountered at line 1029, column 20. Correct the syntax error and rerun the
        simulation.
    ERROR (SFE-711): "./../models/../cells/pfet_01v8/sky130_fd_pr__pfet_01v8__tt.pm3.scs" 1038: Badly formed model in modelgroup.
    ERROR (SFE-874): "./../models/../cells/pfet_01v8/sky130_fd_pr__pfet_01v8__tt.pm3.scs" 1039: Cannot run the simulation because syntax error
        `Unexpected operator "-"' was encountered at line 1039, column 6. Correct the syntax error and rerun the simulation.
    ERROR (SFE-711): "./../models/../cells/pfet_01v8/sky130_fd_pr__pfet_01v8__tt.pm3.scs" 1047: Badly formed model in modelgroup.
    ERROR (SFE-874): "./../models/../cells/pfet_01v8/sky130_fd_pr__pfet_01v8__tt.pm3.scs" 1048: Cannot run the simulation because syntax error
        `Unexpected operator "-"' was encountered at line 1048, column 6. Correct the syntax error and rerun the simulation.
    ERROR (SFE-711): "./../models/../cells/pfet_01v8/sky130_fd_pr__pfet_01v8__tt.pm3.scs" 1056: Badly formed model in modelgroup.
    ERROR (SFE-874): "./../models/../cells/pfet_01v8/sky130_fd_pr__pfet_01v8__tt.pm3.scs" 1057: Cannot run the simulation because syntax error
        `Unexpected operator "-"' was encountered at line 1057, column 6. Correct the syntax error and rerun the simulation.
    ERROR (SFE-711): "./../models/../cells/pfet_01v8/sky130_fd_pr__pfet_01v8__tt.pm3.scs" 1063: Badly formed model in modelgroup.
    ERROR (SFE-874): "./../models/../cells/pfet_01v8/sky130_fd_pr__pfet_01v8__tt.pm3.scs" 1064: Cannot run the simulation because syntax error
        `Unexpected identifier "IV". Expected equals' was encountered at line 1064, column 9. Correct the syntax error and rerun the simulation.
    ERROR (SFE-711): "./../models/../cells/pfet_01v8/sky130_fd_pr__pfet_01v8__tt.pm3.scs" 1064: Badly formed model in modelgroup.
    ERROR (SFE-874): "./../models/../cells/pfet_01v8/sky130_fd_pr__pfet_01v8__tt.pm3.scs" 1065: Cannot run the simulation because syntax error
        `Unexpected operator "-"' was encountered at line 1065, column 6. Correct the syntax error and rerun the simulation.
    ERROR (SFE-711): "./../models/../cells/pfet_01v8/sky130_fd_pr__pfet_01v8__tt.pm3.scs" 1074: Badly formed model in modelgroup.
    ERROR (SFE-874): "./../models/../cells/pfet_01v8/sky130_fd_pr__pfet_01v8__tt.pm3.scs" 1075: Cannot run the simulation because syntax error
        `Unexpected identifier "FET". Expected equals' was encountered at line 1075, column 10. Correct the syntax error and rerun the simulation.
    ERROR (SFE-711): "./../models/../cells/pfet_01v8/sky130_fd_pr__pfet_01v8__tt.pm3.scs" 1105: Badly formed model in modelgroup.
    ERROR (SFE-874): "./../models/../cells/pfet_01v8/sky130_fd_pr__pfet_01v8__tt.pm3.scs" 1106: Cannot run the simulation because syntax error
        `Unexpected operator "-"' was encountered at line 1106, column 6. Correct the syntax error and rerun the simulation.
    ERROR (SFE-711): "./../models/../cells/pfet_01v8/sky130_fd_pr__pfet_01v8__tt.pm3.scs" 1116: Badly formed model in modelgroup.
    ERROR (SFE-874): "./../models/../cells/pfet_01v8/sky130_fd_pr__pfet_01v8__tt.pm3.scs" 1118: Cannot run the simulation because syntax error
        `Unexpected identifier "saref". Expected equals' was encountered at line 1118, column 1. Correct the syntax error and rerun the simulation.
    ERROR (SFE-711): "./../models/../cells/pfet_01v8/sky130_fd_pr__pfet_01v8__tt.pm3.scs" 1138: Badly formed model in modelgroup.
    ERROR (SFE-874): "./../models/../cells/pfet_01v8/sky130_fd_pr__pfet_01v8__tt.pm3.scs" 1141: Cannot run the simulation because syntax error
        `Unexpected identifier "MOS". Expected equals' was encountered at line 1141, column 6. Correct the syntax error and rerun the simulation.
    ERROR (SFE-711): "./../models/../cells/pfet_01v8/sky130_fd_pr__pfet_01v8__tt.pm3.scs" 1165: Badly formed model in modelgroup.
    ERROR (SFE-874): "./../models/../cells/pfet_01v8/sky130_fd_pr__pfet_01v8__tt.pm3.scs" 1166: Cannot run the simulation because syntax error
        `Unexpected operator "-"' was encountered at line 1166, column 6. Correct the syntax error and rerun the simulation.
    ERROR (SFE-711): "./../models/../cells/pfet_01v8/sky130_fd_pr__pfet_01v8__tt.pm3.scs" 1188: Badly formed model in modelgroup.
    ERROR (SFE-874): "./../models/../cells/pfet_01v8/sky130_fd_pr__pfet_01v8__tt.pm3.scs" 1189: Cannot run the simulation because syntax error
        `Unexpected operator "-"' was encountered at line 1189, column 6. Correct the syntax error and rerun the simulation.
    ERROR (SFE-711): "./../models/../cells/pfet_01v8/sky130_fd_pr__pfet_01v8__tt.pm3.scs" 1196: Badly formed model in modelgroup.
    ERROR (SFE-874): "./../models/../cells/pfet_01v8/sky130_fd_pr__pfet_01v8__tt.pm3.scs" 1197: Cannot run the simulation because syntax error
        `Unexpected identifier "Parameters". Expected equals' was encountered at line 1197, column 18. Correct the syntax error and rerun the
        simulation.
    ERROR (SFE-711): "./../models/../cells/pfet_01v8/sky130_fd_pr__pfet_01v8__tt.pm3.scs" 1209: Badly formed model in modelgroup.
    ERROR (SFE-874): "./../models/../cells/pfet_01v8/sky130_fd_pr__pfet_01v8__tt.pm3.scs" 1210: Cannot run the simulation because syntax error
        `Unexpected identifier "Parameters". Expected equals' was encountered at line 1210, column 10. Correct the syntax error and rerun the
        simulation.
    ERROR (SFE-711): "./../models/../cells/pfet_01v8/sky130_fd_pr__pfet_01v8__tt.pm3.scs" 1216: Badly formed model in modelgroup.
    ERROR (SFE-874): "./../models/../cells/pfet_01v8/sky130_fd_pr__pfet_01v8__tt.pm3.scs" 1218: Cannot run the simulation because syntax error
        `Unexpected identifier "vsat". Expected equals' was encountered at line 1218, column 1. Correct the syntax error and rerun the simulation.
    ERROR (SFE-711): "./../models/../cells/pfet_01v8/sky130_fd_pr__pfet_01v8__tt.pm3.scs" 1233: Badly formed model in modelgroup.
    ERROR (SFE-874): "./../models/../cells/pfet_01v8/sky130_fd_pr__pfet_01v8__tt.pm3.scs" 1234: Cannot run the simulation because syntax error
        `Unexpected operator "-"' was encountered at line 1234, column 6. Correct the syntax error and rerun the simulation.
    ERROR (SFE-711): "./../models/../cells/pfet_01v8/sky130_fd_pr__pfet_01v8__tt.pm3.scs" 1240: Badly formed model in modelgroup.
    ERROR (SFE-874): "./../models/../cells/pfet_01v8/sky130_fd_pr__pfet_01v8__tt.pm3.scs" 1241: Cannot run the simulation because syntax error
        `Unexpected identifier "Parameters". Expected equals' was encountered at line 1241, column 21. Correct the syntax error and rerun the
        simulation.
    ERROR (SFE-711): "./../models/../cells/pfet_01v8/sky130_fd_pr__pfet_01v8__tt.pm3.scs" 1255: Badly formed model in modelgroup.
    ERROR (SFE-874): "./../models/../cells/pfet_01v8/sky130_fd_pr__pfet_01v8__tt.pm3.scs" 1256: Cannot run the simulation because syntax error
        `Unexpected operator "-"' was encountered at line 1256, column 6. Correct the syntax error and rerun the simulation.
    ERROR (SFE-711): "./../models/../cells/pfet_01v8/sky130_fd_pr__pfet_01v8__tt.pm3.scs" 1258: Badly formed model in modelgroup.
    ERROR (SFE-874): "./../models/../cells/pfet_01v8/sky130_fd_pr__pfet_01v8__tt.pm3.scs" 1260: Cannot run the simulation because syntax error
        `Unexpected identifier "pclm". Expected equals' was encountered at line 1260, column 1. Correct the syntax error and rerun the simulation.
    ERROR (SFE-711): "./../models/../cells/pfet_01v8/sky130_fd_pr__pfet_01v8__tt.pm3.scs" 1271: Badly formed model in modelgroup.
    ERROR (SFE-874): "./../models/../cells/pfet_01v8/sky130_fd_pr__pfet_01v8__tt.pm3.scs" 1272: Cannot run the simulation because syntax error
        `Unexpected operator "-"' was encountered at line 1272, column 6. Correct the syntax error and rerun the simulation.
    ERROR (SFE-711): "./../models/../cells/pfet_01v8/sky130_fd_pr__pfet_01v8__tt.pm3.scs" 1276: Badly formed model in modelgroup.
    ERROR (SFE-874): "./../models/../cells/pfet_01v8/sky130_fd_pr__pfet_01v8__tt.pm3.scs" 1277: Cannot run the simulation because syntax error
        `Unexpected operator "-"' was encountered at line 1277, column 6. Correct the syntax error and rerun the simulation.
    ERROR (SFE-711): "./../models/../cells/pfet_01v8/sky130_fd_pr__pfet_01v8__tt.pm3.scs" 1281: Badly formed model in modelgroup.
    ERROR (SFE-874): "./../models/../cells/pfet_01v8/sky130_fd_pr__pfet_01v8__tt.pm3.scs" 1282: Cannot run the simulation because syntax error
        `Unexpected operator "-"' was encountered at line 1282, column 6. Correct the syntax error and rerun the simulation.
    ERROR (SFE-711): "./../models/../cells/pfet_01v8/sky130_fd_pr__pfet_01v8__tt.pm3.scs" 1303: Badly formed model in modelgroup.
    ERROR (SFE-874): "./../models/../cells/pfet_01v8/sky130_fd_pr__pfet_01v8__tt.pm3.scs" 1304: Cannot run the simulation because syntax error
        `Unexpected identifier "Parameters". Expected equals' was encountered at line 1304, column 20. Correct the syntax error and rerun the
        simulation.
    ERROR (SFE-711): "./../models/../cells/pfet_01v8/sky130_fd_pr__pfet_01v8__tt.pm3.scs" 1313: Badly formed model in modelgroup.
    ERROR (SFE-874): "./../models/../cells/pfet_01v8/sky130_fd_pr__pfet_01v8__tt.pm3.scs" 1314: Cannot run the simulation because syntax error
        `Unexpected operator "-"' was encountered at line 1314, column 6. Correct the syntax error and rerun the simulation.
    ERROR (SFE-711): "./../models/../cells/pfet_01v8/sky130_fd_pr__pfet_01v8__tt.pm3.scs" 1322: Badly formed model in modelgroup.
    ERROR (SFE-874): "./../models/../cells/pfet_01v8/sky130_fd_pr__pfet_01v8__tt.pm3.scs" 1323: Cannot run the simulation because syntax error
        `Unexpected operator "-"' was encountered at line 1323, column 6. Correct the syntax error and rerun the simulation.
    ERROR (SFE-711): "./../models/../cells/pfet_01v8/sky130_fd_pr__pfet_01v8__tt.pm3.scs" 1331: Badly formed model in modelgroup.
    ERROR (SFE-874): "./../models/../cells/pfet_01v8/sky130_fd_pr__pfet_01v8__tt.pm3.scs" 1332: Cannot run the simulation because syntax error
        `Unexpected operator "-"' was encountered at line 1332, column 6. Correct the syntax error and rerun the simulation.
    ERROR (SFE-711): "./../models/../cells/pfet_01v8/sky130_fd_pr__pfet_01v8__tt.pm3.scs" 1338: Badly formed model in modelgroup.
    ERROR (SFE-874): "./../models/../cells/pfet_01v8/sky130_fd_pr__pfet_01v8__tt.pm3.scs" 1339: Cannot run the simulation because syntax error
        `Unexpected identifier "IV". Expected equals' was encountered at line 1339, column 9. Correct the syntax error and rerun the simulation.
    ERROR (SFE-711): "./../models/../cells/pfet_01v8/sky130_fd_pr__pfet_01v8__tt.pm3.scs" 1339: Badly formed model in modelgroup.
    ERROR (SFE-874): "./../models/../cells/pfet_01v8/sky130_fd_pr__pfet_01v8__tt.pm3.scs" 1340: Cannot run the simulation because syntax error
        `Unexpected operator "-"' was encountered at line 1340, column 6. Correct the syntax error and rerun the simulation.
    ERROR (SFE-711): "./../models/../cells/pfet_01v8/sky130_fd_pr__pfet_01v8__tt.pm3.scs" 1349: Badly formed model in modelgroup.
    ERROR (SFE-874): "./../models/../cells/pfet_01v8/sky130_fd_pr__pfet_01v8__tt.pm3.scs" 1350: Cannot run the simulation because syntax error
        `Unexpected identifier "FET". Expected equals' was encountered at line 1350, column 10. Correct the syntax error and rerun the simulation.
    ERROR (SFE-711): "./../models/../cells/pfet_01v8/sky130_fd_pr__pfet_01v8__tt.pm3.scs" 1380: Badly formed model in modelgroup.
    ERROR (SFE-874): "./../models/../cells/pfet_01v8/sky130_fd_pr__pfet_01v8__tt.pm3.scs" 1381: Cannot run the simulation because syntax error
        `Unexpected operator "-"' was encountered at line 1381, column 6. Correct the syntax error and rerun the simulation.
    ERROR (SFE-711): "./../models/../cells/pfet_01v8/sky130_fd_pr__pfet_01v8__tt.pm3.scs" 1391: Badly formed model in modelgroup.
    ERROR (SFE-874): "./../models/../cells/pfet_01v8/sky130_fd_pr__pfet_01v8__tt.pm3.scs" 1393: Cannot run the simulation because syntax error
        `Unexpected identifier "saref". Expected equals' was encountered at line 1393, column 1. Correct the syntax error and rerun the simulation.
    ERROR (SFE-711): "./../models/../cells/pfet_01v8/sky130_fd_pr__pfet_01v8__tt.pm3.scs" 1413: Badly formed model in modelgroup.
    ERROR (SFE-874): "./../models/../cells/pfet_01v8/sky130_fd_pr__pfet_01v8__tt.pm3.scs" 1416: Cannot run the simulation because syntax error
        `Unexpected identifier "MOS". Expected equals' was encountered at line 1416, column 6. Correct the syntax error and rerun the simulation.
    ERROR (SFE-711): "./../models/../cells/pfet_01v8/sky130_fd_pr__pfet_01v8__tt.pm3.scs" 1440: Badly formed model in modelgroup.
    ERROR (SFE-874): "./../models/../cells/pfet_01v8/sky130_fd_pr__pfet_01v8__tt.pm3.scs" 1441: Cannot run the simulation because syntax error
        `Unexpected operator "-"' was encountered at line 1441, column 6. Correct the syntax error and rerun the simulation.
    ERROR (SFE-711): "./../models/../cells/pfet_01v8/sky130_fd_pr__pfet_01v8__tt.pm3.scs" 1463: Badly formed model in modelgroup.
    ERROR (SFE-874): "./../models/../cells/pfet_01v8/sky130_fd_pr__pfet_01v8__tt.pm3.scs" 1464: Cannot run the simulation because syntax error
        `Unexpected operator "-"' was encountered at line 1464, column 6. Correct the syntax error and rerun the simulation.
    ERROR (SFE-711): "./../models/../cells/pfet_01v8/sky130_fd_pr__pfet_01v8__tt.pm3.scs" 1471: Badly formed model in modelgroup.
    ERROR (SFE-874): "./../models/../cells/pfet_01v8/sky130_fd_pr__pfet_01v8__tt.pm3.scs" 1472: Cannot run the simulation because syntax error
        `Unexpected identifier "Parameters". Expected equals' was encountered at line 1472, column 18. Correct the syntax error and rerun the
        simulation.
    ERROR (SFE-711): "./../models/../cells/pfet_01v8/sky130_fd_pr__pfet_01v8__tt.pm3.scs" 1484: Badly formed model in modelgroup.
    ERROR (SFE-874): "./../models/../cells/pfet_01v8/sky130_fd_pr__pfet_01v8__tt.pm3.scs" 1485: Cannot run the simulation because syntax error
        `Unexpected identifier "Parameters". Expected equals' was encountered at line 1485, column 10. Correct the syntax error and rerun the
        simulation.
    ERROR (SFE-711): "./../models/../cells/pfet_01v8/sky130_fd_pr__pfet_01v8__tt.pm3.scs" 1491: Badly formed model in modelgroup.
    ERROR (SFE-874): "./../models/../cells/pfet_01v8/sky130_fd_pr__pfet_01v8__tt.pm3.scs" 1493: Cannot run the simulation because syntax error
        `Unexpected identifier "vsat". Expected equals' was encountered at line 1493, column 1. Correct the syntax error and rerun the simulation.
    ERROR (SFE-711): "./../models/../cells/pfet_01v8/sky130_fd_pr__pfet_01v8__tt.pm3.scs" 1508: Badly formed model in modelgroup.
    ERROR (SFE-874): "./../models/../cells/pfet_01v8/sky130_fd_pr__pfet_01v8__tt.pm3.scs" 1509: Cannot run the simulation because syntax error
        `Unexpected operator "-"' was encountered at line 1509, column 6. Correct the syntax error and rerun the simulation.
    ERROR (SFE-711): "./../models/../cells/pfet_01v8/sky130_fd_pr__pfet_01v8__tt.pm3.scs" 1515: Badly formed model in modelgroup.
    ERROR (SFE-874): "./../models/../cells/pfet_01v8/sky130_fd_pr__pfet_01v8__tt.pm3.scs" 1516: Cannot run the simulation because syntax error
        `Unexpected identifier "Parameters". Expected equals' was encountered at line 1516, column 21. Correct the syntax error and rerun the
        simulation.
    ERROR (SFE-711): "./../models/../cells/pfet_01v8/sky130_fd_pr__pfet_01v8__tt.pm3.scs" 1530: Badly formed model in modelgroup.
    ERROR (SFE-874): "./../models/../cells/pfet_01v8/sky130_fd_pr__pfet_01v8__tt.pm3.scs" 1531: Cannot run the simulation because syntax error
        `Unexpected operator "-"' was encountered at line 1531, column 6. Correct the syntax error and rerun the simulation.
    ERROR (SFE-711): "./../models/../cells/pfet_01v8/sky130_fd_pr__pfet_01v8__tt.pm3.scs" 1533: Badly formed model in modelgroup.
    ERROR (SFE-874): "./../models/../cells/pfet_01v8/sky130_fd_pr__pfet_01v8__tt.pm3.scs" 1535: Cannot run the simulation because syntax error
        `Unexpected identifier "pclm". Expected equals' was encountered at line 1535, column 1. Correct the syntax error and rerun the simulation.
    ERROR (SFE-711): "./../models/../cells/pfet_01v8/sky130_fd_pr__pfet_01v8__tt.pm3.scs" 1546: Badly formed model in modelgroup.
    ERROR (SFE-874): "./../models/../cells/pfet_01v8/sky130_fd_pr__pfet_01v8__tt.pm3.scs" 1547: Cannot run the simulation because syntax error
        `Unexpected operator "-"' was encountered at line 1547, column 6. Correct the syntax error and rerun the simulation.
    ERROR (SFE-711): "./../models/../cells/pfet_01v8/sky130_fd_pr__pfet_01v8__tt.pm3.scs" 1551: Badly formed model in modelgroup.
    ERROR (SFE-874): "./../models/../cells/pfet_01v8/sky130_fd_pr__pfet_01v8__tt.pm3.scs" 1552: Cannot run the simulation because syntax error
        `Unexpected operator "-"' was encountered at line 1552, column 6. Correct the syntax error and rerun the simulation.
    ERROR (SFE-711): "./../models/../cells/pfet_01v8/sky130_fd_pr__pfet_01v8__tt.pm3.scs" 1556: Badly formed model in modelgroup.
    ERROR (SFE-874): "./../models/../cells/pfet_01v8/sky130_fd_pr__pfet_01v8__tt.pm3.scs" 1557: Cannot run the simulation because syntax error
        `Unexpected operator "-"' was encountered at line 1557, column 6. Correct the syntax error and rerun the simulation.
    ERROR (SFE-711): "./../models/../cells/pfet_01v8/sky130_fd_pr__pfet_01v8__tt.pm3.scs" 1578: Badly formed model in modelgroup.
    ERROR (SFE-874): "./../models/../cells/pfet_01v8/sky130_fd_pr__pfet_01v8__tt.pm3.scs" 1579: Cannot run the simulation because syntax error
        `Unexpected identifier "Parameters". Expected equals' was encountered at line 1579, column 20. Correct the syntax error and rerun the
        simulation.
    ERROR (SFE-711): "./../models/../cells/pfet_01v8/sky130_fd_pr__pfet_01v8__tt.pm3.scs" 1588: Badly formed model in modelgroup.
    ERROR (SFE-874): "./../models/../cells/pfet_01v8/sky130_fd_pr__pfet_01v8__tt.pm3.scs" 1589: Cannot run the simulation because syntax error
        `Unexpected operator "-"' was encountered at line 1589, column 6. Correct the syntax error and rerun the simulation.
    ERROR (SFE-711): "./../models/../cells/pfet_01v8/sky130_fd_pr__pfet_01v8__tt.pm3.scs" 1597: Badly formed model in modelgroup.
    ERROR (SFE-874): "./../models/../cells/pfet_01v8/sky130_fd_pr__pfet_01v8__tt.pm3.scs" 1598: Cannot run the simulation because syntax error
        `Unexpected operator "-"' was encountered at line 1598, column 6. Correct the syntax error and rerun the simulation.
    ERROR (SFE-711): "./../models/../cells/pfet_01v8/sky130_fd_pr__pfet_01v8__tt.pm3.scs" 1606: Badly formed model in modelgroup.
    ERROR (SFE-874): "./../models/../cells/pfet_01v8/sky130_fd_pr__pfet_01v8__tt.pm3.scs" 1607: Cannot run the simulation because syntax error
        `Unexpected operator "-"' was encountered at line 1607, column 6. Correct the syntax error and rerun the simulation.
    ERROR (SFE-711): "./../models/../cells/pfet_01v8/sky130_fd_pr__pfet_01v8__tt.pm3.scs" 1613: Badly formed model in modelgroup.
    ERROR (SFE-874): "./../models/../cells/pfet_01v8/sky130_fd_pr__pfet_01v8__tt.pm3.scs" 1614: Cannot run the simulation because syntax error
        `Unexpected identifier "IV". Expected equals' was encountered at line 1614, column 9. Correct the syntax error and rerun the simulation.
    ERROR (SFE-711): "./../models/../cells/pfet_01v8/sky130_fd_pr__pfet_01v8__tt.pm3.scs" 1614: Badly formed model in modelgroup.
    ERROR (SFE-874): "./../models/../cells/pfet_01v8/sky130_fd_pr__pfet_01v8__tt.pm3.scs" 1615: Cannot run the simulation because syntax error
        `Unexpected operator "-"' was encountered at line 1615, column 6. Correct the syntax error and rerun the simulation.
    ERROR (SFE-711): "./../models/../cells/pfet_01v8/sky130_fd_pr__pfet_01v8__tt.pm3.scs" 1624: Badly formed model in modelgroup.
    ERROR (SFE-874): "./../models/../cells/pfet_01v8/sky130_fd_pr__pfet_01v8__tt.pm3.scs" 1625: Cannot run the simulation because syntax error
        `Unexpected identifier "FET". Expected equals' was encountered at line 1625, column 10. Correct the syntax error and rerun the simulation.
    ERROR (SFE-711): "./../models/../cells/pfet_01v8/sky130_fd_pr__pfet_01v8__tt.pm3.scs" 1655: Badly formed model in modelgroup.
    ERROR (SFE-874): "./../models/../cells/pfet_01v8/sky130_fd_pr__pfet_01v8__tt.pm3.scs" 1656: Cannot run the simulation because syntax error
        `Unexpected operator "-"' was encountered at line 1656, column 6. Correct the syntax error and rerun the simulation.
    ERROR (SFE-711): "./../models/../cells/pfet_01v8/sky130_fd_pr__pfet_01v8__tt.pm3.scs" 1666: Badly formed model in modelgroup.
    ERROR (SFE-874): "./../models/../cells/pfet_01v8/sky130_fd_pr__pfet_01v8__tt.pm3.scs" 1668: Cannot run the simulation because syntax error
        `Unexpected identifier "saref". Expected equals' was encountered at line 1668, column 1. Correct the syntax error and rerun the simulation.
    ERROR (SFE-711): "./../models/../cells/pfet_01v8/sky130_fd_pr__pfet_01v8__tt.pm3.scs" 1688: Badly formed model in modelgroup.
    ERROR (SFE-874): "./../models/../cells/pfet_01v8/sky130_fd_pr__pfet_01v8__tt.pm3.scs" 1691: Cannot run the simulation because syntax error
        `Unexpected identifier "MOS". Expected equals' was encountered at line 1691, column 6. Correct the syntax error and rerun the simulation.
    ERROR (SFE-711): "./../models/../cells/pfet_01v8/sky130_fd_pr__pfet_01v8__tt.pm3.scs" 1715: Badly formed model in modelgroup.
    ERROR (SFE-874): "./../models/../cells/pfet_01v8/sky130_fd_pr__pfet_01v8__tt.pm3.scs" 1716: Cannot run the simulation because syntax error
        `Unexpected operator "-"' was encountered at line 1716, column 6. Correct the syntax error and rerun the simulation.
    ERROR (SFE-711): "./../models/../cells/pfet_01v8/sky130_fd_pr__pfet_01v8__tt.pm3.scs" 1738: Badly formed model in modelgroup.
    ERROR (SFE-874): "./../models/../cells/pfet_01v8/sky130_fd_pr__pfet_01v8__tt.pm3.scs" 1739: Cannot run the simulation because syntax error
        `Unexpected operator "-"' was encountered at line 1739, column 6. Correct the syntax error and rerun the simulation.
    ERROR (SFE-711): "./../models/../cells/pfet_01v8/sky130_fd_pr__pfet_01v8__tt.pm3.scs" 1746: Badly formed model in modelgroup.
    ERROR (SFE-874): "./../models/../cells/pfet_01v8/sky130_fd_pr__pfet_01v8__tt.pm3.scs" 1747: Cannot run the simulation because syntax error
        `Unexpected identifier "Parameters". Expected equals' was encountered at line 1747, column 18. Correct the syntax error and rerun the
        simulation.
    ERROR (SFE-711): "./../models/../cells/pfet_01v8/sky130_fd_pr__pfet_01v8__tt.pm3.scs" 1759: Badly formed model in modelgroup.
    ERROR (SFE-874): "./../models/../cells/pfet_01v8/sky130_fd_pr__pfet_01v8__tt.pm3.scs" 1760: Cannot run the simulation because syntax error
        `Unexpected identifier "Parameters". Expected equals' was encountered at line 1760, column 10. Correct the syntax error and rerun the
        simulation.
    ERROR (SFE-711): "./../models/../cells/pfet_01v8/sky130_fd_pr__pfet_01v8__tt.pm3.scs" 1766: Badly formed model in modelgroup.
    ERROR (SFE-874): "./../models/../cells/pfet_01v8/sky130_fd_pr__pfet_01v8__tt.pm3.scs" 1768: Cannot run the simulation because syntax error
        `Unexpected identifier "vsat". Expected equals' was encountered at line 1768, column 1. Correct the syntax error and rerun the simulation.
    ERROR (SFE-711): "./../models/../cells/pfet_01v8/sky130_fd_pr__pfet_01v8__tt.pm3.scs" 1783: Badly formed model in modelgroup.
    ERROR (SFE-874): "./../models/../cells/pfet_01v8/sky130_fd_pr__pfet_01v8__tt.pm3.scs" 1784: Cannot run the simulation because syntax error
        `Unexpected operator "-"' was encountered at line 1784, column 6. Correct the syntax error and rerun the simulation.
    ERROR (SFE-711): "./../models/../cells/pfet_01v8/sky130_fd_pr__pfet_01v8__tt.pm3.scs" 1790: Badly formed model in modelgroup.
    ERROR (SFE-874): "./../models/../cells/pfet_01v8/sky130_fd_pr__pfet_01v8__tt.pm3.scs" 1791: Cannot run the simulation because syntax error
        `Unexpected identifier "Parameters". Expected equals' was encountered at line 1791, column 21. Correct the syntax error and rerun the
        simulation.
    ERROR (SFE-711): "./../models/../cells/pfet_01v8/sky130_fd_pr__pfet_01v8__tt.pm3.scs" 1805: Badly formed model in modelgroup.
    ERROR (SFE-874): "./../models/../cells/pfet_01v8/sky130_fd_pr__pfet_01v8__tt.pm3.scs" 1806: Cannot run the simulation because syntax error
        `Unexpected operator "-"' was encountered at line 1806, column 6. Correct the syntax error and rerun the simulation.
    ERROR (SFE-711): "./../models/../cells/pfet_01v8/sky130_fd_pr__pfet_01v8__tt.pm3.scs" 1808: Badly formed model in modelgroup.
    ERROR (SFE-874): "./../models/../cells/pfet_01v8/sky130_fd_pr__pfet_01v8__tt.pm3.scs" 1810: Cannot run the simulation because syntax error
        `Unexpected identifier "pclm". Expected equals' was encountered at line 1810, column 1. Correct the syntax error and rerun the simulation.
    ERROR (SFE-711): "./../models/../cells/pfet_01v8/sky130_fd_pr__pfet_01v8__tt.pm3.scs" 1821: Badly formed model in modelgroup.
    ERROR (SFE-874): "./../models/../cells/pfet_01v8/sky130_fd_pr__pfet_01v8__tt.pm3.scs" 1822: Cannot run the simulation because syntax error
        `Unexpected operator "-"' was encountered at line 1822, column 6. Correct the syntax error and rerun the simulation.
    ERROR (SFE-711): "./../models/../cells/pfet_01v8/sky130_fd_pr__pfet_01v8__tt.pm3.scs" 1826: Badly formed model in modelgroup.
    ERROR (SFE-874): "./../models/../cells/pfet_01v8/sky130_fd_pr__pfet_01v8__tt.pm3.scs" 1827: Cannot run the simulation because syntax error
        `Unexpected operator "-"' was encountered at line 1827, column 6. Correct the syntax error and rerun the simulation.
    ERROR (SFE-711): "./../models/../cells/pfet_01v8/sky130_fd_pr__pfet_01v8__tt.pm3.scs" 1831: Badly formed model in modelgroup.
    ERROR (SFE-874): "./../models/../cells/pfet_01v8/sky130_fd_pr__pfet_01v8__tt.pm3.scs" 1832: Cannot run the simulation because syntax error
        `Unexpected operator "-"' was encountered at line 1832, column 6. Correct the syntax error and rerun the simulation.
    ERROR (SFE-711): "./../models/../cells/pfet_01v8/sky130_fd_pr__pfet_01v8__tt.pm3.scs" 1853: Badly formed model in modelgroup.
    ERROR (SFE-874): "./../models/../cells/pfet_01v8/sky130_fd_pr__pfet_01v8__tt.pm3.scs" 1854: Cannot run the simulation because syntax error
        `Unexpected identifier "Parameters". Expected equals' was encountered at line 1854, column 20. Correct the syntax error and rerun the
        simulation.
    ERROR (SFE-711): "./../models/../cells/pfet_01v8/sky130_fd_pr__pfet_01v8__tt.pm3.scs" 1863: Badly formed model in modelgroup.
    ERROR (SFE-874): "./../models/../cells/pfet_01v8/sky130_fd_pr__pfet_01v8__tt.pm3.scs" 1864: Cannot run the simulation because syntax error
        `Unexpected operator "-"' was encountered at line 1864, column 6. Correct the syntax error and rerun the simulation.
    ERROR (SFE-711): "./../models/../cells/pfet_01v8/sky130_fd_pr__pfet_01v8__tt.pm3.scs" 1872: Badly formed model in modelgroup.
    ERROR (SFE-874): "./../models/../cells/pfet_01v8/sky130_fd_pr__pfet_01v8__tt.pm3.scs" 1873: Cannot run the simulation because syntax error
        `Unexpected operator "-"' was encountered at line 1873, column 6. Correct the syntax error and rerun the simulation.
    ERROR (SFE-711): "./../models/../cells/pfet_01v8/sky130_fd_pr__pfet_01v8__tt.pm3.scs" 1881: Badly formed model in modelgroup.
    ERROR (SFE-874): "./../models/../cells/pfet_01v8/sky130_fd_pr__pfet_01v8__tt.pm3.scs" 1882: Cannot run the simulation because syntax error
        `Unexpected operator "-"' was encountered at line 1882, column 6. Correct the syntax error and rerun the simulation.
    ERROR (SFE-711): "./../models/../cells/pfet_01v8/sky130_fd_pr__pfet_01v8__tt.pm3.scs" 1888: Badly formed model in modelgroup.
    ERROR (SFE-874): "./../models/../cells/pfet_01v8/sky130_fd_pr__pfet_01v8__tt.pm3.scs" 1889: Cannot run the simulation because syntax error
        `Unexpected identifier "IV". Expected equals' was encountered at line 1889, column 9. Correct the syntax error and rerun the simulation.
    ERROR (SFE-711): "./../models/../cells/pfet_01v8/sky130_fd_pr__pfet_01v8__tt.pm3.scs" 1889: Badly formed model in modelgroup.
    ERROR (SFE-874): "./../models/../cells/pfet_01v8/sky130_fd_pr__pfet_01v8__tt.pm3.scs" 1890: Cannot run the simulation because syntax error
        `Unexpected operator "-"' was encountered at line 1890, column 6. Correct the syntax error and rerun the simulation.
    ERROR (SFE-711): "./../models/../cells/pfet_01v8/sky130_fd_pr__pfet_01v8__tt.pm3.scs" 1899: Badly formed model in modelgroup.
    ERROR (SFE-874): "./../models/../cells/pfet_01v8/sky130_fd_pr__pfet_01v8__tt.pm3.scs" 1900: Cannot run the simulation because syntax error
        `Unexpected identifier "FET". Expected equals' was encountered at line 1900, column 10. Correct the syntax error and rerun the simulation.
    ERROR (SFE-711): "./../models/../cells/pfet_01v8/sky130_fd_pr__pfet_01v8__tt.pm3.scs" 1930: Badly formed model in modelgroup.
    ERROR (SFE-874): "./../models/../cells/pfet_01v8/sky130_fd_pr__pfet_01v8__tt.pm3.scs" 1931: Cannot run the simulation because syntax error
        `Unexpected operator "-"' was encountered at line 1931, column 6. Correct the syntax error and rerun the simulation.
    ERROR (SFE-711): "./../models/../cells/pfet_01v8/sky130_fd_pr__pfet_01v8__tt.pm3.scs" 1941: Badly formed model in modelgroup.
    ERROR (SFE-874): "./../models/../cells/pfet_01v8/sky130_fd_pr__pfet_01v8__tt.pm3.scs" 1943: Cannot run the simulation because syntax error
        `Unexpected identifier "saref". Expected equals' was encountered at line 1943, column 1. Correct the syntax error and rerun the simulation.
    ERROR (SFE-711): "./../models/../cells/pfet_01v8/sky130_fd_pr__pfet_01v8__tt.pm3.scs" 1963: Badly formed model in modelgroup.
    ERROR (SFE-874): "./../models/../cells/pfet_01v8/sky130_fd_pr__pfet_01v8__tt.pm3.scs" 1966: Cannot run the simulation because syntax error
        `Unexpected identifier "MOS". Expected equals' was encountered at line 1966, column 6. Correct the syntax error and rerun the simulation.
    ERROR (SFE-711): "./../models/../cells/pfet_01v8/sky130_fd_pr__pfet_01v8__tt.pm3.scs" 1990: Badly formed model in modelgroup.
    ERROR (SFE-874): "./../models/../cells/pfet_01v8/sky130_fd_pr__pfet_01v8__tt.pm3.scs" 1991: Cannot run the simulation because syntax error
        `Unexpected operator "-"' was encountered at line 1991, column 6. Correct the syntax error and rerun the simulation.
    ERROR (SFE-711): "./../models/../cells/pfet_01v8/sky130_fd_pr__pfet_01v8__tt.pm3.scs" 2013: Badly formed model in modelgroup.
    ERROR (SFE-874): "./../models/../cells/pfet_01v8/sky130_fd_pr__pfet_01v8__tt.pm3.scs" 2014: Cannot run the simulation because syntax error
        `Unexpected operator "-"' was encountered at line 2014, column 6. Correct the syntax error and rerun the simulation.
    ERROR (SFE-711): "./../models/../cells/pfet_01v8/sky130_fd_pr__pfet_01v8__tt.pm3.scs" 2021: Badly formed model in modelgroup.
    ERROR (SFE-874): "./../models/../cells/pfet_01v8/sky130_fd_pr__pfet_01v8__tt.pm3.scs" 2022: Cannot run the simulation because syntax error
        `Unexpected identifier "Parameters". Expected equals' was encountered at line 2022, column 18. Correct the syntax error and rerun the
        simulation.
    ERROR (SFE-711): "./../models/../cells/pfet_01v8/sky130_fd_pr__pfet_01v8__tt.pm3.scs" 2034: Badly formed model in modelgroup.
    ERROR (SFE-874): "./../models/../cells/pfet_01v8/sky130_fd_pr__pfet_01v8__tt.pm3.scs" 2035: Cannot run the simulation because syntax error
        `Unexpected identifier "Parameters". Expected equals' was encountered at line 2035, column 10. Correct the syntax error and rerun the
        simulation.
    ERROR (SFE-711): "./../models/../cells/pfet_01v8/sky130_fd_pr__pfet_01v8__tt.pm3.scs" 2041: Badly formed model in modelgroup.
    ERROR (SFE-874): "./../models/../cells/pfet_01v8/sky130_fd_pr__pfet_01v8__tt.pm3.scs" 2043: Cannot run the simulation because syntax error
        `Unexpected identifier "vsat". Expected equals' was encountered at line 2043, column 1. Correct the syntax error and rerun the simulation.
    ERROR (SFE-711): "./../models/../cells/pfet_01v8/sky130_fd_pr__pfet_01v8__tt.pm3.scs" 2058: Badly formed model in modelgroup.
    ERROR (SFE-874): "./../models/../cells/pfet_01v8/sky130_fd_pr__pfet_01v8__tt.pm3.scs" 2059: Cannot run the simulation because syntax error
        `Unexpected operator "-"' was encountered at line 2059, column 6. Correct the syntax error and rerun the simulation.
    ERROR (SFE-711): "./../models/../cells/pfet_01v8/sky130_fd_pr__pfet_01v8__tt.pm3.scs" 2065: Badly formed model in modelgroup.
    ERROR (SFE-874): "./../models/../cells/pfet_01v8/sky130_fd_pr__pfet_01v8__tt.pm3.scs" 2066: Cannot run the simulation because syntax error
        `Unexpected identifier "Parameters". Expected equals' was encountered at line 2066, column 21. Correct the syntax error and rerun the
        simulation.
    ERROR (SFE-711): "./../models/../cells/pfet_01v8/sky130_fd_pr__pfet_01v8__tt.pm3.scs" 2080: Badly formed model in modelgroup.
    ERROR (SFE-874): "./../models/../cells/pfet_01v8/sky130_fd_pr__pfet_01v8__tt.pm3.scs" 2081: Cannot run the simulation because syntax error
        `Unexpected operator "-"' was encountered at line 2081, column 6. Correct the syntax error and rerun the simulation.
    ERROR (SFE-711): "./../models/../cells/pfet_01v8/sky130_fd_pr__pfet_01v8__tt.pm3.scs" 2083: Badly formed model in modelgroup.
    ERROR (SFE-874): "./../models/../cells/pfet_01v8/sky130_fd_pr__pfet_01v8__tt.pm3.scs" 2085: Cannot run the simulation because syntax error
        `Unexpected identifier "pclm". Expected equals' was encountered at line 2085, column 1. Correct the syntax error and rerun the simulation.
    ERROR (SFE-711): "./../models/../cells/pfet_01v8/sky130_fd_pr__pfet_01v8__tt.pm3.scs" 2096: Badly formed model in modelgroup.
    ERROR (SFE-874): "./../models/../cells/pfet_01v8/sky130_fd_pr__pfet_01v8__tt.pm3.scs" 2097: Cannot run the simulation because syntax error
        `Unexpected operator "-"' was encountered at line 2097, column 6. Correct the syntax error and rerun the simulation.
    ERROR (SFE-711): "./../models/../cells/pfet_01v8/sky130_fd_pr__pfet_01v8__tt.pm3.scs" 2101: Badly formed model in modelgroup.
    ERROR (SFE-874): "./../models/../cells/pfet_01v8/sky130_fd_pr__pfet_01v8__tt.pm3.scs" 2102: Cannot run the simulation because syntax error
        `Unexpected operator "-"' was encountered at line 2102, column 6. Correct the syntax error and rerun the simulation.
    ERROR (SFE-711): "./../models/../cells/pfet_01v8/sky130_fd_pr__pfet_01v8__tt.pm3.scs" 2106: Badly formed model in modelgroup.
    ERROR (SFE-874): "./../models/../cells/pfet_01v8/sky130_fd_pr__pfet_01v8__tt.pm3.scs" 2107: Cannot run the simulation because syntax error
        `Unexpected operator "-"' was encountered at line 2107, column 6. Correct the syntax error and rerun the simulation.
    ERROR (SFE-711): "./../models/../cells/pfet_01v8/sky130_fd_pr__pfet_01v8__tt.pm3.scs" 2128: Badly formed model in modelgroup.
    ERROR (SFE-874): "./../models/../cells/pfet_01v8/sky130_fd_pr__pfet_01v8__tt.pm3.scs" 2129: Cannot run the simulation because syntax error
        `Unexpected identifier "Parameters". Expected equals' was encountered at line 2129, column 20. Correct the syntax error and rerun the
        simulation.
    ERROR (SFE-711): "./../models/../cells/pfet_01v8/sky130_fd_pr__pfet_01v8__tt.pm3.scs" 2138: Badly formed model in modelgroup.
    ERROR (SFE-874): "./../models/../cells/pfet_01v8/sky130_fd_pr__pfet_01v8__tt.pm3.scs" 2139: Cannot run the simulation because syntax error
        `Unexpected operator "-"' was encountered at line 2139, column 6. Correct the syntax error and rerun the simulation.
    ERROR (SFE-711): "./../models/../cells/pfet_01v8/sky130_fd_pr__pfet_01v8__tt.pm3.scs" 2147: Badly formed model in modelgroup.
    ERROR (SFE-874): "./../models/../cells/pfet_01v8/sky130_fd_pr__pfet_01v8__tt.pm3.scs" 2148: Cannot run the simulation because syntax error
        `Unexpected operator "-"' was encountered at line 2148, column 6. Correct the syntax error and rerun the simulation.
    ERROR (SFE-711): "./../models/../cells/pfet_01v8/sky130_fd_pr__pfet_01v8__tt.pm3.scs" 2156: Badly formed model in modelgroup.
    ERROR (SFE-874): "./../models/../cells/pfet_01v8/sky130_fd_pr__pfet_01v8__tt.pm3.scs" 2157: Cannot run the simulation because syntax error
        `Unexpected operator "-"' was encountered at line 2157, column 6. Correct the syntax error and rerun the simulation.
    ERROR (SFE-711): "./../models/../cells/pfet_01v8/sky130_fd_pr__pfet_01v8__tt.pm3.scs" 2163: Badly formed model in modelgroup.
    ERROR (SFE-874): "./../models/../cells/pfet_01v8/sky130_fd_pr__pfet_01v8__tt.pm3.scs" 2164: Cannot run the simulation because syntax error
        `Unexpected identifier "IV". Expected equals' was encountered at line 2164, column 9. Correct the syntax error and rerun the simulation.
    ERROR (SFE-711): "./../models/../cells/pfet_01v8/sky130_fd_pr__pfet_01v8__tt.pm3.scs" 2164: Badly formed model in modelgroup.
    ERROR (SFE-874): "./../models/../cells/pfet_01v8/sky130_fd_pr__pfet_01v8__tt.pm3.scs" 2165: Cannot run the simulation because syntax error
        `Unexpected operator "-"' was encountered at line 2165, column 6. Correct the syntax error and rerun the simulation.
    ERROR (SFE-711): "./../models/../cells/pfet_01v8/sky130_fd_pr__pfet_01v8__tt.pm3.scs" 2174: Badly formed model in modelgroup.
    ERROR (SFE-874): "./../models/../cells/pfet_01v8/sky130_fd_pr__pfet_01v8__tt.pm3.scs" 2175: Cannot run the simulation because syntax error
        `Unexpected identifier "FET". Expected equals' was encountered at line 2175, column 10. Correct the syntax error and rerun the simulation.
    ERROR (SFE-711): "./../models/../cells/pfet_01v8/sky130_fd_pr__pfet_01v8__tt.pm3.scs" 2205: Badly formed model in modelgroup.
    ERROR (SFE-874): "./../models/../cells/pfet_01v8/sky130_fd_pr__pfet_01v8__tt.pm3.scs" 2206: Cannot run the simulation because syntax error
        `Unexpected operator "-"' was encountered at line 2206, column 6. Correct the syntax error and rerun the simulation.
    ERROR (SFE-711): "./../models/../cells/pfet_01v8/sky130_fd_pr__pfet_01v8__tt.pm3.scs" 2216: Badly formed model in modelgroup.
    ERROR (SFE-874): "./../models/../cells/pfet_01v8/sky130_fd_pr__pfet_01v8__tt.pm3.scs" 2218: Cannot run the simulation because syntax error
        `Unexpected identifier "saref". Expected equals' was encountered at line 2218, column 1. Correct the syntax error and rerun the simulation.
    ERROR (SFE-711): "./../models/../cells/pfet_01v8/sky130_fd_pr__pfet_01v8__tt.pm3.scs" 2238: Badly formed model in modelgroup.
    ERROR (SFE-874): "./../models/../cells/pfet_01v8/sky130_fd_pr__pfet_01v8__tt.pm3.scs" 2241: Cannot run the simulation because syntax error
        `Unexpected identifier "MOS". Expected equals' was encountered at line 2241, column 6. Correct the syntax error and rerun the simulation.
    ERROR (SFE-711): "./../models/../cells/pfet_01v8/sky130_fd_pr__pfet_01v8__tt.pm3.scs" 2265: Badly formed model in modelgroup.
    ERROR (SFE-874): "./../models/../cells/pfet_01v8/sky130_fd_pr__pfet_01v8__tt.pm3.scs" 2266: Cannot run the simulation because syntax error
        `Unexpected operator "-"' was encountered at line 2266, column 6. Correct the syntax error and rerun the simulation.
    ERROR (SFE-711): "./../models/../cells/pfet_01v8/sky130_fd_pr__pfet_01v8__tt.pm3.scs" 2288: Badly formed model in modelgroup.
    ERROR (SFE-874): "./../models/../cells/pfet_01v8/sky130_fd_pr__pfet_01v8__tt.pm3.scs" 2289: Cannot run the simulation because syntax error
        `Unexpected operator "-"' was encountered at line 2289, column 6. Correct the syntax error and rerun the simulation.
    ERROR (SFE-711): "./../models/../cells/pfet_01v8/sky130_fd_pr__pfet_01v8__tt.pm3.scs" 2296: Badly formed model in modelgroup.
    ERROR (SFE-874): "./../models/../cells/pfet_01v8/sky130_fd_pr__pfet_01v8__tt.pm3.scs" 2297: Cannot run the simulation because syntax error
        `Unexpected identifier "Parameters". Expected equals' was encountered at line 2297, column 18. Correct the syntax error and rerun the
        simulation.
    ERROR (SFE-711): "./../models/../cells/pfet_01v8/sky130_fd_pr__pfet_01v8__tt.pm3.scs" 2309: Badly formed model in modelgroup.
    ERROR (SFE-874): "./../models/../cells/pfet_01v8/sky130_fd_pr__pfet_01v8__tt.pm3.scs" 2310: Cannot run the simulation because syntax error
        `Unexpected identifier "Parameters". Expected equals' was encountered at line 2310, column 10. Correct the syntax error and rerun the
        simulation.
    ERROR (SFE-711): "./../models/../cells/pfet_01v8/sky130_fd_pr__pfet_01v8__tt.pm3.scs" 2316: Badly formed model in modelgroup.
    ERROR (SFE-874): "./../models/../cells/pfet_01v8/sky130_fd_pr__pfet_01v8__tt.pm3.scs" 2318: Cannot run the simulation because syntax error
        `Unexpected identifier "vsat". Expected equals' was encountered at line 2318, column 1. Correct the syntax error and rerun the simulation.
    ERROR (SFE-711): "./../models/../cells/pfet_01v8/sky130_fd_pr__pfet_01v8__tt.pm3.scs" 2333: Badly formed model in modelgroup.
    ERROR (SFE-874): "./../models/../cells/pfet_01v8/sky130_fd_pr__pfet_01v8__tt.pm3.scs" 2334: Cannot run the simulation because syntax error
        `Unexpected operator "-"' was encountered at line 2334, column 6. Correct the syntax error and rerun the simulation.
    ERROR (SFE-711): "./../models/../cells/pfet_01v8/sky130_fd_pr__pfet_01v8__tt.pm3.scs" 2340: Badly formed model in modelgroup.
    ERROR (SFE-874): "./../models/../cells/pfet_01v8/sky130_fd_pr__pfet_01v8__tt.pm3.scs" 2341: Cannot run the simulation because syntax error
        `Unexpected identifier "Parameters". Expected equals' was encountered at line 2341, column 21. Correct the syntax error and rerun the
        simulation.
[...]
        `Unexpected operator "-"' was encountered at line 29156, column 6. Correct the syntax error and rerun the simulation.
    ERROR (SFE-711): "./../models/../cells/pfet_01v8/sky130_fd_pr__pfet_01v8__tt.pm3.scs" 29166: Badly formed model in modelgroup.
    ERROR (SFE-874): "./../models/../cells/pfet_01v8/sky130_fd_pr__pfet_01v8__tt.pm3.scs" 29168: Cannot run the simulation because syntax error
        `Unexpected identifier "saref". Expected equals' was encountered at line 29168, column 1. Correct the syntax error and rerun the simulation.
    ERROR (SFE-711): "./../models/../cells/pfet_01v8/sky130_fd_pr__pfet_01v8__tt.pm3.scs" 29188: Badly formed model in modelgroup.
    ERROR (SFE-874): "./../models/../cells/pfet_01v8/sky130_fd_pr__pfet_01v8__tt.pm3.scs" 29191: Cannot run the simulation because syntax error
        `Unexpected identifier "MOS". Expected equals' was encountered at line 29191, column 6. Correct the syntax error and rerun the simulation.
    ERROR (SFE-711): "./../models/../cells/pfet_01v8/sky130_fd_pr__pfet_01v8__tt.pm3.scs" 29215: Badly formed model in modelgroup.
    ERROR (SFE-874): "./../models/../cells/pfet_01v8/sky130_fd_pr__pfet_01v8__tt.pm3.scs" 29216: Cannot run the simulation because syntax error
        `Unexpected operator "-"' was encountered at line 29216, column 6. Correct the syntax error and rerun the simulation.
    ERROR (SFE-711): "./../models/../cells/pfet_01v8/sky130_fd_pr__pfet_01v8__tt.pm3.scs" 29238: Badly formed model in modelgroup.
    ERROR (SFE-874): "./../models/../cells/pfet_01v8/sky130_fd_pr__pfet_01v8__tt.pm3.scs" 29239: Cannot run the simulation because syntax error
        `Unexpected operator "-"' was encountered at line 29239, column 6. Correct the syntax error and rerun the simulation.
    ERROR (SFE-711): "./../models/../cells/pfet_01v8/sky130_fd_pr__pfet_01v8__tt.pm3.scs" 29246: Badly formed model in modelgroup.
    ERROR (SFE-874): "./../models/../cells/pfet_01v8/sky130_fd_pr__pfet_01v8__tt.pm3.scs" 29247: Cannot run the simulation because syntax error
        `Unexpected identifier "Parameters". Expected equals' was encountered at line 29247, column 18. Correct the syntax error and rerun the
        simulation.
    ERROR (SFE-711): "./../models/../cells/pfet_01v8/sky130_fd_pr__pfet_01v8__tt.pm3.scs" 29259: Badly formed model in modelgroup.
    ERROR (SFE-874): "./../models/../cells/pfet_01v8/sky130_fd_pr__pfet_01v8__tt.pm3.scs" 29260: Cannot run the simulation because syntax error
        `Unexpected identifier "Parameters". Expected equals' was encountered at line 29260, column 10. Correct the syntax error and rerun the
        simulation.
    ERROR (SFE-711): "./../models/../cells/pfet_01v8/sky130_fd_pr__pfet_01v8__tt.pm3.scs" 29266: Badly formed model in modelgroup.
    ERROR (SFE-874): "./../models/../cells/pfet_01v8/sky130_fd_pr__pfet_01v8__tt.pm3.scs" 29268: Cannot run the simulation because syntax error
        `Unexpected identifier "vsat". Expected equals' was encountered at line 29268, column 1. Correct the syntax error and rerun the simulation.
    ERROR (SFE-711): "./../models/../cells/pfet_01v8/sky130_fd_pr__pfet_01v8__tt.pm3.scs" 29283: Badly formed model in modelgroup.
    ERROR (SFE-874): "./../models/../cells/pfet_01v8/sky130_fd_pr__pfet_01v8__tt.pm3.scs" 29284: Cannot run the simulation because syntax error
        `Unexpected operator "-"' was encountered at line 29284, column 6. Correct the syntax error and rerun the simulation.
    ERROR (SFE-711): "./../models/../cells/pfet_01v8/sky130_fd_pr__pfet_01v8__tt.pm3.scs" 29290: Badly formed model in modelgroup.
    ERROR (SFE-874): "./../models/../cells/pfet_01v8/sky130_fd_pr__pfet_01v8__tt.pm3.scs" 29291: Cannot run the simulation because syntax error
        `Unexpected identifier "Parameters". Expected equals' was encountered at line 29291, column 21. Correct the syntax error and rerun the
        simulation.
    ERROR (SFE-711): "./../models/../cells/pfet_01v8/sky130_fd_pr__pfet_01v8__tt.pm3.scs" 29305: Badly formed model in modelgroup.
    ERROR (SFE-874): "./../models/../cells/pfet_01v8/sky130_fd_pr__pfet_01v8__tt.pm3.scs" 29306: Cannot run the simulation because syntax error
        `Unexpected operator "-"' was encountered at line 29306, column 6. Correct the syntax error and rerun the simulation.
    ERROR (SFE-711): "./../models/../cells/pfet_01v8/sky130_fd_pr__pfet_01v8__tt.pm3.scs" 29308: Badly formed model in modelgroup.
    ERROR (SFE-874): "./../models/../cells/pfet_01v8/sky130_fd_pr__pfet_01v8__tt.pm3.scs" 29310: Cannot run the simulation because syntax error
        `Unexpected identifier "pclm". Expected equals' was encountered at line 29310, column 1. Correct the syntax error and rerun the simulation.
    ERROR (SFE-711): "./../models/../cells/pfet_01v8/sky130_fd_pr__pfet_01v8__tt.pm3.scs" 29321: Badly formed model in modelgroup.
    ERROR (SFE-874): "./../models/../cells/pfet_01v8/sky130_fd_pr__pfet_01v8__tt.pm3.scs" 29322: Cannot run the simulation because syntax error
        `Unexpected operator "-"' was encountered at line 29322, column 6. Correct the syntax error and rerun the simulation.
    ERROR (SFE-711): "./../models/../cells/pfet_01v8/sky130_fd_pr__pfet_01v8__tt.pm3.scs" 29326: Badly formed model in modelgroup.
    ERROR (SFE-874): "./../models/../cells/pfet_01v8/sky130_fd_pr__pfet_01v8__tt.pm3.scs" 29327: Cannot run the simulation because syntax error
        `Unexpected operator "-"' was encountered at line 29327, column 6. Correct the syntax error and rerun the simulation.
    ERROR (SFE-711): "./../models/../cells/pfet_01v8/sky130_fd_pr__pfet_01v8__tt.pm3.scs" 29331: Badly formed model in modelgroup.
    ERROR (SFE-874): "./../models/../cells/pfet_01v8/sky130_fd_pr__pfet_01v8__tt.pm3.scs" 29332: Cannot run the simulation because syntax error
        `Unexpected operator "-"' was encountered at line 29332, column 6. Correct the syntax error and rerun the simulation.
    ERROR (SFE-711): "./../models/../cells/pfet_01v8/sky130_fd_pr__pfet_01v8__tt.pm3.scs" 29353: Badly formed model in modelgroup.
    ERROR (SFE-874): "./../models/../cells/pfet_01v8/sky130_fd_pr__pfet_01v8__tt.pm3.scs" 29354: Cannot run the simulation because syntax error
        `Unexpected identifier "Parameters". Expected equals' was encountered at line 29354, column 20. Correct the syntax error and rerun the
        simulation.
    ERROR (SFE-711): "./../models/../cells/pfet_01v8/sky130_fd_pr__pfet_01v8__tt.pm3.scs" 29363: Badly formed model in modelgroup.
    ERROR (SFE-874): "./../models/../cells/pfet_01v8/sky130_fd_pr__pfet_01v8__tt.pm3.scs" 29364: Cannot run the simulation because syntax error
        `Unexpected operator "-"' was encountered at line 29364, column 6. Correct the syntax error and rerun the simulation.
    ERROR (SFE-711): "./../models/../cells/pfet_01v8/sky130_fd_pr__pfet_01v8__tt.pm3.scs" 29372: Badly formed model in modelgroup.
    ERROR (SFE-874): "./../models/../cells/pfet_01v8/sky130_fd_pr__pfet_01v8__tt.pm3.scs" 29373: Cannot run the simulation because syntax error
        `Unexpected operator "-"' was encountered at line 29373, column 6. Correct the syntax error and rerun the simulation.
    ERROR (SFE-711): "./../models/../cells/pfet_01v8/sky130_fd_pr__pfet_01v8__tt.pm3.scs" 29381: Badly formed model in modelgroup.
    ERROR (SFE-874): "./../models/../cells/pfet_01v8/sky130_fd_pr__pfet_01v8__tt.pm3.scs" 29382: Cannot run the simulation because syntax error
        `Unexpected operator "-"' was encountered at line 29382, column 6. Correct the syntax error and rerun the simulation.
    ERROR (SFE-711): "./../models/../cells/pfet_01v8/sky130_fd_pr__pfet_01v8__tt.pm3.scs" 29388: Badly formed model in modelgroup.
    ERROR (SFE-874): "./../models/../cells/pfet_01v8/sky130_fd_pr__pfet_01v8__tt.pm3.scs" 29389: Cannot run the simulation because syntax error
        `Unexpected identifier "IV". Expected equals' was encountered at line 29389, column 9. Correct the syntax error and rerun the simulation.
    ERROR (SFE-711): "./../models/../cells/pfet_01v8/sky130_fd_pr__pfet_01v8__tt.pm3.scs" 29389: Badly formed model in modelgroup.
    ERROR (SFE-874): "./../models/../cells/pfet_01v8/sky130_fd_pr__pfet_01v8__tt.pm3.scs" 29390: Cannot run the simulation because syntax error
        `Unexpected operator "-"' was encountered at line 29390, column 6. Correct the syntax error and rerun the simulation.
    ERROR (SFE-711): "./../models/../cells/pfet_01v8/sky130_fd_pr__pfet_01v8__tt.pm3.scs" 29399: Badly formed model in modelgroup.
    ERROR (SFE-874): "./../models/../cells/pfet_01v8/sky130_fd_pr__pfet_01v8__tt.pm3.scs" 29400: Cannot run the simulation because syntax error
        `Unexpected identifier "FET". Expected equals' was encountered at line 29400, column 10. Correct the syntax error and rerun the simulation.
    ERROR (SFE-711): "./../models/../cells/pfet_01v8/sky130_fd_pr__pfet_01v8__tt.pm3.scs" 29430: Badly formed model in modelgroup.
    ERROR (SFE-874): "./../models/../cells/pfet_01v8/sky130_fd_pr__pfet_01v8__tt.pm3.scs" 29431: Cannot run the simulation because syntax error
        `Unexpected operator "-"' was encountered at line 29431, column 6. Correct the syntax error and rerun the simulation.
    ERROR (SFE-711): "./../models/../cells/pfet_01v8/sky130_fd_pr__pfet_01v8__tt.pm3.scs" 29441: Badly formed model in modelgroup.
    ERROR (SFE-874): "./../models/../cells/pfet_01v8/sky130_fd_pr__pfet_01v8__tt.pm3.scs" 29443: Cannot run the simulation because syntax error
        `Unexpected identifier "saref". Expected equals' was encountered at line 29443, column 1. Correct the syntax error and rerun the simulation.
    ERROR (SFE-711): "./../models/../cells/pfet_01v8/sky130_fd_pr__pfet_01v8__tt.pm3.scs" 29463: Badly formed model in modelgroup.
    ERROR (SFE-874): "./../models/../cells/pfet_01v8/sky130_fd_pr__pfet_01v8__tt.pm3.scs" 29466: Cannot run the simulation because syntax error
        `Unexpected identifier "MOS". Expected equals' was encountered at line 29466, column 6. Correct the syntax error and rerun the simulation.
    ERROR (SFE-711): "./../models/../cells/pfet_01v8/sky130_fd_pr__pfet_01v8__tt.pm3.scs" 29490: Badly formed model in modelgroup.
    ERROR (SFE-874): "./../models/../cells/pfet_01v8/sky130_fd_pr__pfet_01v8__tt.pm3.scs" 29491: Cannot run the simulation because syntax error
        `Unexpected operator "-"' was encountered at line 29491, column 6. Correct the syntax error and rerun the simulation.
    ERROR (SFE-711): "./../models/../cells/pfet_01v8/sky130_fd_pr__pfet_01v8__tt.pm3.scs" 29513: Badly formed model in modelgroup.
    ERROR (SFE-874): "./../models/../cells/pfet_01v8/sky130_fd_pr__pfet_01v8__tt.pm3.scs" 29514: Cannot run the simulation because syntax error
        `Unexpected operator "-"' was encountered at line 29514, column 6. Correct the syntax error and rerun the simulation.
    ERROR (SFE-711): "./../models/../cells/pfet_01v8/sky130_fd_pr__pfet_01v8__tt.pm3.scs" 29521: Badly formed model in modelgroup.
    ERROR (SFE-874): "./../models/../cells/pfet_01v8/sky130_fd_pr__pfet_01v8__tt.pm3.scs" 29522: Cannot run the simulation because syntax error
        `Unexpected identifier "Parameters". Expected equals' was encountered at line 29522, column 18. Correct the syntax error and rerun the
        simulation.
    ERROR (SFE-711): "./../models/../cells/pfet_01v8/sky130_fd_pr__pfet_01v8__tt.pm3.scs" 29534: Badly formed model in modelgroup.
    ERROR (SFE-874): "./../models/../cells/pfet_01v8/sky130_fd_pr__pfet_01v8__tt.pm3.scs" 29535: Cannot run the simulation because syntax error
        `Unexpected identifier "Parameters". Expected equals' was encountered at line 29535, column 10. Correct the syntax error and rerun the
        simulation.
    ERROR (SFE-711): "./../models/../cells/pfet_01v8/sky130_fd_pr__pfet_01v8__tt.pm3.scs" 29541: Badly formed model in modelgroup.
    ERROR (SFE-874): "./../models/../cells/pfet_01v8/sky130_fd_pr__pfet_01v8__tt.pm3.scs" 29543: Cannot run the simulation because syntax error
        `Unexpected identifier "vsat". Expected equals' was encountered at line 29543, column 1. Correct the syntax error and rerun the simulation.
    ERROR (SFE-711): "./../models/../cells/pfet_01v8/sky130_fd_pr__pfet_01v8__tt.pm3.scs" 29558: Badly formed model in modelgroup.
    ERROR (SFE-874): "./../models/../cells/pfet_01v8/sky130_fd_pr__pfet_01v8__tt.pm3.scs" 29559: Cannot run the simulation because syntax error
        `Unexpected operator "-"' was encountered at line 29559, column 6. Correct the syntax error and rerun the simulation.
    ERROR (SFE-711): "./../models/../cells/pfet_01v8/sky130_fd_pr__pfet_01v8__tt.pm3.scs" 29565: Badly formed model in modelgroup.
    ERROR (SFE-874): "./../models/../cells/pfet_01v8/sky130_fd_pr__pfet_01v8__tt.pm3.scs" 29566: Cannot run the simulation because syntax error
        `Unexpected identifier "Parameters". Expected equals' was encountered at line 29566, column 21. Correct the syntax error and rerun the
        simulation.
    ERROR (SFE-711): "./../models/../cells/pfet_01v8/sky130_fd_pr__pfet_01v8__tt.pm3.scs" 29580: Badly formed model in modelgroup.
    ERROR (SFE-874): "./../models/../cells/pfet_01v8/sky130_fd_pr__pfet_01v8__tt.pm3.scs" 29581: Cannot run the simulation because syntax error
        `Unexpected operator "-"' was encountered at line 29581, column 6. Correct the syntax error and rerun the simulation.
    ERROR (SFE-711): "./../models/../cells/pfet_01v8/sky130_fd_pr__pfet_01v8__tt.pm3.scs" 29583: Badly formed model in modelgroup.
    ERROR (SFE-874): "./../models/../cells/pfet_01v8/sky130_fd_pr__pfet_01v8__tt.pm3.scs" 29585: Cannot run the simulation because syntax error
        `Unexpected identifier "pclm". Expected equals' was encountered at line 29585, column 1. Correct the syntax error and rerun the simulation.
    ERROR (SFE-711): "./../models/../cells/pfet_01v8/sky130_fd_pr__pfet_01v8__tt.pm3.scs" 29596: Badly formed model in modelgroup.
    ERROR (SFE-874): "./../models/../cells/pfet_01v8/sky130_fd_pr__pfet_01v8__tt.pm3.scs" 29597: Cannot run the simulation because syntax error
        `Unexpected operator "-"' was encountered at line 29597, column 6. Correct the syntax error and rerun the simulation.
    ERROR (SFE-711): "./../models/../cells/pfet_01v8/sky130_fd_pr__pfet_01v8__tt.pm3.scs" 29601: Badly formed model in modelgroup.
    ERROR (SFE-874): "./../models/../cells/pfet_01v8/sky130_fd_pr__pfet_01v8__tt.pm3.scs" 29602: Cannot run the simulation because syntax error
        `Unexpected operator "-"' was encountered at line 29602, column 6. Correct the syntax error and rerun the simulation.
    ERROR (SFE-711): "./../models/../cells/pfet_01v8/sky130_fd_pr__pfet_01v8__tt.pm3.scs" 29606: Badly formed model in modelgroup.
    ERROR (SFE-874): "./../models/../cells/pfet_01v8/sky130_fd_pr__pfet_01v8__tt.pm3.scs" 29607: Cannot run the simulation because syntax error
        `Unexpected operator "-"' was encountered at line 29607, column 6. Correct the syntax error and rerun the simulation.
    ERROR (SFE-711): "./../models/../cells/pfet_01v8/sky130_fd_pr__pfet_01v8__tt.pm3.scs" 29628: Badly formed model in modelgroup.
    ERROR (SFE-874): "./../models/../cells/pfet_01v8/sky130_fd_pr__pfet_01v8__tt.pm3.scs" 29629: Cannot run the simulation because syntax error
        `Unexpected identifier "Parameters". Expected equals' was encountered at line 29629, column 20. Correct the syntax error and rerun the
        simulation.
    ERROR (SFE-711): "./../models/../cells/pfet_01v8/sky130_fd_pr__pfet_01v8__tt.pm3.scs" 29638: Badly formed model in modelgroup.
    ERROR (SFE-874): "./../models/../cells/pfet_01v8/sky130_fd_pr__pfet_01v8__tt.pm3.scs" 29639: Cannot run the simulation because syntax error
        `Unexpected operator "-"' was encountered at line 29639, column 6. Correct the syntax error and rerun the simulation.
    ERROR (SFE-711): "./../models/../cells/pfet_01v8/sky130_fd_pr__pfet_01v8__tt.pm3.scs" 29647: Badly formed model in modelgroup.
    ERROR (SFE-874): "./../models/../cells/pfet_01v8/sky130_fd_pr__pfet_01v8__tt.pm3.scs" 29648: Cannot run the simulation because syntax error
        `Unexpected operator "-"' was encountered at line 29648, column 6. Correct the syntax error and rerun the simulation.
    ERROR (SFE-711): "./../models/../cells/pfet_01v8/sky130_fd_pr__pfet_01v8__tt.pm3.scs" 29656: Badly formed model in modelgroup.
    ERROR (SFE-874): "./../models/../cells/pfet_01v8/sky130_fd_pr__pfet_01v8__tt.pm3.scs" 29657: Cannot run the simulation because syntax error
        `Unexpected operator "-"' was encountered at line 29657, column 6. Correct the syntax error and rerun the simulation.
    ERROR (SFE-711): "./../models/../cells/pfet_01v8/sky130_fd_pr__pfet_01v8__tt.pm3.scs" 29663: Badly formed model in modelgroup.
    ERROR (SFE-874): "./../models/../cells/pfet_01v8/sky130_fd_pr__pfet_01v8__tt.pm3.scs" 29664: Cannot run the simulation because syntax error
        `Unexpected identifier "IV". Expected equals' was encountered at line 29664, column 9. Correct the syntax error and rerun the simulation.
    ERROR (SFE-711): "./../models/../cells/pfet_01v8/sky130_fd_pr__pfet_01v8__tt.pm3.scs" 29664: Badly formed model in modelgroup.
    ERROR (SFE-874): "./../models/../cells/pfet_01v8/sky130_fd_pr__pfet_01v8__tt.pm3.scs" 29665: Cannot run the simulation because syntax error
        `Unexpected operator "-"' was encountered at line 29665, column 6. Correct the syntax error and rerun the simulation.
    ERROR (SFE-711): "./../models/../cells/pfet_01v8/sky130_fd_pr__pfet_01v8__tt.pm3.scs" 29674: Badly formed model in modelgroup.
    ERROR (SFE-874): "./../models/../cells/pfet_01v8/sky130_fd_pr__pfet_01v8__tt.pm3.scs" 29675: Cannot run the simulation because syntax error
        `Unexpected identifier "FET". Expected equals' was encountered at line 29675, column 10. Correct the syntax error and rerun the simulation.
    ERROR (SFE-711): "./../models/../cells/pfet_01v8/sky130_fd_pr__pfet_01v8__tt.pm3.scs" 29705: Badly formed model in modelgroup.
    ERROR (SFE-874): "./../models/../cells/pfet_01v8/sky130_fd_pr__pfet_01v8__tt.pm3.scs" 29706: Cannot run the simulation because syntax error
        `Unexpected operator "-"' was encountered at line 29706, column 6. Correct the syntax error and rerun the simulation.
    ERROR (SFE-711): "./../models/../cells/pfet_01v8/sky130_fd_pr__pfet_01v8__tt.pm3.scs" 29716: Badly formed model in modelgroup.
    ERROR (SFE-874): "./../models/../cells/pfet_01v8/sky130_fd_pr__pfet_01v8__tt.pm3.scs" 29718: Cannot run the simulation because syntax error
        `Unexpected identifier "saref". Expected equals' was encountered at line 29718, column 1. Correct the syntax error and rerun the simulation.
    ERROR (SFE-711): "./../models/../cells/pfet_01v8/sky130_fd_pr__pfet_01v8__tt.pm3.scs" 29738: Badly formed model in modelgroup.

Reading file:  /home/schweikardt/github/sky130-models-spectre/models/corners/tt/nofet.scs
Reading file:  /home/schweikardt/github/sky130-models-spectre/cells/nfet_01v8/sky130_fd_pr__nfet_01v8__mismatch.corner.scs
Reading file:  /home/schweikardt/github/sky130-models-spectre/cells/pfet_01v8/sky130_fd_pr__pfet_01v8__mismatch.corner.scs
Reading file:  /home/schweikardt/github/sky130-models-spectre/models/all.scs
Reading file:  /home/schweikardt/github/sky130-models-spectre/models/parameters/lod.scs
Time for NDB Parsing: CPU = 302.963 ms, elapsed = 379.996 ms.
Time accumulated: CPU = 339.13 ms, elapsed = 380 ms.
Peak resident memory used = 102 Mbytes.


Aggregate audit (12:08:39 PM, Thur Oct 21, 2021):
Time used: CPU = 340 ms, elapsed = 381 ms, util. = 89.3%.
Time spent in licensing: elapsed = 16.3 ms.
Peak memory used = 102 Mbytes.
Simulation started at: 12:08:39 PM, Thur Oct 21, 2021, ended at: 12:08:39 PM, Thur Oct 21, 2021, with elapsed time (wall clock): 381 ms.
spectre completes with 4753 errors, 0 warnings, and 0 notices.
